Program Version,EnergyPlus, Version 9.3.0-baff08990c, YMD=2021.05.14 10:49
! This file shows details about the branches, nodes, and other
! elements of the flow connections.
! This file is intended for use in "debugging" potential problems
! that may also be detected by the program, but may be more easily
! identified by "eye".
! This file is also intended to support software which draws a
! schematic diagram of the HVAC system.
! ===============================================================
! #Nodes,<Number of Unique Nodes>
 #Nodes,346
! <Node>,<NodeNumber>,<Node Name>,<Node Fluid Type>,<# Times Node Referenced After Definition>
 Node,1,NODE 82,Air,2
 Node,2,NODE 81,Air,2
 Node,3,NODE 8,Air,2
 Node,4,NODE 7,Air,2
 Node,5,NODE 44,Air,2
 Node,6,NODE 43,Air,2
 Node,7,NODE 88,Air,2
 Node,8,NODE 87,Air,2
 Node,9,NODE 104,Air,2
 Node,10,NODE 103,Air,2
 Node,11,NODE 14,Air,2
 Node,12,NODE 13,Air,2
 Node,13,NODE 98,Air,2
 Node,14,NODE 97,Air,2
 Node,15,NODE 76,Air,2
 Node,16,NODE 75,Air,2
 Node,17,NODE 78,Air,2
 Node,18,NODE 77,Air,2
 Node,19,NODE 4,Air,2
 Node,20,NODE 3,Air,2
 Node,21,NODE 16,Air,2
 Node,22,NODE 15,Air,2
 Node,23,NODE 110,Air,2
 Node,24,NODE 109,Air,2
 Node,25,NODE 100,Air,2
 Node,26,NODE 99,Air,2
 Node,27,NODE 116,Air,2
 Node,28,NODE 115,Air,2
 Node,29,NODE 114,Air,2
 Node,30,NODE 113,Air,2
 Node,31,NODE 56,Air,2
 Node,32,NODE 55,Air,2
 Node,33,NODE 80,Air,2
 Node,34,NODE 79,Air,2
 Node,35,NODE 112,Air,2
 Node,36,NODE 111,Air,2
 Node,37,NODE 42,Air,2
 Node,38,NODE 41,Air,2
 Node,39,NODE 96,Air,2
 Node,40,NODE 95,Air,2
 Node,41,NODE 120,Air,2
 Node,42,NODE 119,Air,2
 Node,43,NODE 28,Air,2
 Node,44,NODE 27,Air,2
 Node,45,NODE 94,Air,2
 Node,46,NODE 93,Air,2
 Node,47,NODE 122,Air,2
 Node,48,NODE 121,Air,2
 Node,49,NODE 48,Air,2
 Node,50,NODE 47,Air,2
 Node,51,NODE 126,Air,2
 Node,52,NODE 125,Air,2
 Node,53,NODE 86,Air,2
 Node,54,NODE 85,Air,2
 Node,55,NODE 84,Air,2
 Node,56,NODE 83,Air,2
 Node,57,NODE 130,Air,2
 Node,58,NODE 129,Air,2
 Node,59,NODE 134,Air,2
 Node,60,NODE 133,Air,2
 Node,61,NODE 108,Air,2
 Node,62,NODE 107,Air,2
 Node,63,NODE 18,Air,2
 Node,64,NODE 17,Air,2
 Node,65,NODE 90,Air,2
 Node,66,NODE 89,Air,2
 Node,67,NODE 92,Air,2
 Node,68,NODE 91,Air,2
 Node,69,NODE 132,Air,2
 Node,70,NODE 131,Air,2
 Node,71,NODE 138,Air,2
 Node,72,NODE 137,Air,2
 Node,73,NODE 22,Air,2
 Node,74,NODE 21,Air,2
 Node,75,NODE 136,Air,2
 Node,76,NODE 135,Air,2
 Node,77,NODE 124,Air,2
 Node,78,NODE 123,Air,2
 Node,79,NODE 106,Air,2
 Node,80,NODE 105,Air,2
 Node,81,NODE 72,Air,2
 Node,82,NODE 71,Air,2
 Node,83,NODE 128,Air,2
 Node,84,NODE 127,Air,2
 Node,85,NODE 118,Air,2
 Node,86,NODE 117,Air,2
 Node,87,NODE 102,Air,2
 Node,88,NODE 101,Air,2
 Node,89,NODE 140,Air,2
 Node,90,NODE 139,Air,2
 Node,91,NODE 64,Air,2
 Node,92,NODE 63,Air,2
 Node,93,NODE 74,Air,2
 Node,94,NODE 73,Air,2
 Node,95,NODE 66,Air,2
 Node,96,NODE 65,Air,2
 Node,97,NODE 68,Air,2
 Node,98,NODE 67,Air,2
 Node,99,NODE 62,Air,2
 Node,100,NODE 61,Air,2
 Node,101,NODE 12,Air,2
 Node,102,NODE 11,Air,2
 Node,103,NODE 32,Air,2
 Node,104,NODE 31,Air,2
 Node,105,NODE 20,Air,2
 Node,106,NODE 19,Air,2
 Node,107,NODE 70,Air,2
 Node,108,NODE 69,Air,2
 Node,109,NODE 10,Air,2
 Node,110,NODE 9,Air,2
 Node,111,NODE 58,Air,2
 Node,112,NODE 57,Air,2
 Node,113,NODE 34,Air,2
 Node,114,NODE 33,Air,2
 Node,115,NODE 50,Air,2
 Node,116,NODE 49,Air,2
 Node,117,NODE 52,Air,2
 Node,118,NODE 51,Air,2
 Node,119,NODE 54,Air,2
 Node,120,NODE 53,Air,2
 Node,121,NODE 60,Air,2
 Node,122,NODE 59,Air,2
 Node,123,NODE 6,Air,2
 Node,124,NODE 5,Air,2
 Node,125,NODE 26,Air,2
 Node,126,NODE 25,Air,2
 Node,127,NODE 30,Air,2
 Node,128,NODE 29,Air,2
 Node,129,NODE 36,Air,2
 Node,130,NODE 35,Air,2
 Node,131,NODE 38,Air,2
 Node,132,NODE 37,Air,2
 Node,133,NODE 40,Air,2
 Node,134,NODE 39,Air,2
 Node,135,NODE 46,Air,2
 Node,136,NODE 45,Air,2
 Node,137,NODE 2,Air,2
 Node,138,NODE 1,Air,2
 Node,139,NODE 24,Air,2
 Node,140,NODE 23,Air,2
 Node,141,SERVICE HOT WATER LOOP SUPPLY INLET NODE,Water,2
 Node,142,SERVICE WATER HEATING PUMP OUTLET WATER NODE,Water,1
 Node,143,SWH TANK SUPPLY INLET WATER NODE,Water,1
 Node,144,SWH TANK SUPPLY OUTLET WATER NODE,Water,1
 Node,145,PIPE ADIABATIC 1 INLET WATER NODE,Water,1
 Node,146,PIPE ADIABATIC 1 OUTLET WATER NODE,Water,1
 Node,147,ELECTRIC HOT WATER TANK SUPPLY INLET WATER NODE,Water,1
 Node,148,SERVICE HOT WATER LOOP SUPPLY OUTLET NODE,Water,4
 Node,149,SERVICE HOT WATER LOOP DEMAND INLET NODE,Water,2
 Node,150,PIPE ADIABATIC 3 OUTLET WATER NODE,Water,1
 Node,151,PIPE ADIABATIC 2 INLET WATER NODE,Water,1
 Node,152,PIPE ADIABATIC 2 OUTLET WATER NODE,Water,1
 Node,153,SHW LOOP WATER USE CONNECTION INLET WATER NODE,Water,1
 Node,154,SHW LOOP WATER USE CONNECTION OUTLET WATER NODE,Water,1
 Node,155,SERVICE HOT WATER LOOP DEMAND BYPASS PIPE INLET NODE,Water,1
 Node,156,SERVICE HOT WATER LOOP DEMAND BYPASS PIPE OUTLET NODE,Water,1
 Node,157,PIPE ADIABATIC 4 INLET WATER NODE,Water,1
 Node,158,SERVICE HOT WATER LOOP DEMAND OUTLET NODE,Water,2
 Node,159,SERVICE PREHEAT WATER LOOP SUPPLY INLET NODE,Water,2
 Node,160,SERVICE PREHEAT WATER PUMP OUTLET WATER NODE,Water,1
 Node,161,PIRANHA SUPPLY INLET WATER NODE,Water,1
 Node,162,PIRANHA SUPPLY OUTLET WATER NODE,Water,1
 Node,163,PIPE ADIABATIC 5 INLET WATER NODE,Water,1
 Node,164,PIPE ADIABATIC 5 OUTLET WATER NODE,Water,1
 Node,165,SERVICE PREHEAT WATER LOOP SUPPLY OUTLET PIPE NODE,Water,1
 Node,166,SERVICE PREHEAT WATER LOOP SUPPLY OUTLET NODE,Water,4
 Node,167,SERVICE PREHEAT WATER LOOP DEMAND INLET NODE,Water,2
 Node,168,SERVICE PREHEAT WATER LOOP PIPE 314.95097567963927FT OUTLET WATER NODE,Water,3
 Node,169,PIPE ADIABATIC 6 OUTLET WATER NODE,Water,1
 Node,170,SWH TANK DEMAND INLET WATER NODE,Water,1
 Node,171,SWH TANK DEMAND OUTLET WATER NODE,Water,1
 Node,172,SERVICE PREHEAT WATER LOOP DEMAND BYPASS PIPE INLET NODE,Water,1
 Node,173,SERVICE PREHEAT WATER LOOP DEMAND BYPASS PIPE OUTLET NODE,Water,1
 Node,174,PIPE ADIABATIC 7 INLET WATER NODE,Water,1
 Node,175,SERVICE PREHEAT WATER LOOP DEMAND OUTLET NODE,Water,2
 Node,176,WASTE WATER HEAT PUMP LOOP SUPPLY INLET NODE,Water,2
 Node,177,WASTE WATER HEAT PUMP PUMP OUTLET WATER NODE,Water,1
 Node,178,WASTE WATER TANK SUPPLY INLET WATER NODE,Water,1
 Node,179,WASTE WATER TANK SUPPLY OUTLET WATER NODE,Water,1
 Node,180,WASTE WATER HEAT PUMP LOOP SUPPLY OUTLET PIPE NODE,Water,1
 Node,181,WASTE WATER HEAT PUMP LOOP SUPPLY OUTLET NODE,Water,4
 Node,182,WASTE WATER HEAT PUMP LOOP DEMAND INLET NODE,Water,2
 Node,183,PIPE ADIABATIC 9 OUTLET WATER NODE,Water,1
 Node,184,PIRANHA DEMAND INLET WATER NODE,Water,1
 Node,185,PIRANHA DEMAND OUTLET WATER NODE,Water,1
 Node,186,PIPE ADIABATIC 8 INLET WATER NODE,Water,1
 Node,187,PIPE ADIABATIC 8 OUTLET WATER NODE,Water,1
 Node,188,WASTE WATER HEAT PUMP LOOP DEMAND BYPASS PIPE INLET NODE,Water,1
 Node,189,WASTE WATER HEAT PUMP LOOP DEMAND BYPASS PIPE OUTLET NODE,Water,1
 Node,190,PIPE ADIABATIC 10 INLET WATER NODE,Water,1
 Node,191,WASTE WATER HEAT PUMP LOOP DEMAND OUTLET NODE,Water,2
 Node,192,WW-WATER CONNECTIONS LOOP SUPPLY INLET NODE,Water,2
 Node,193,WASTE WATER PUMP OUTLET WATER NODE,Water,1
 Node,194,WW-WATER CONNECTIONS LOOP SUPPLY BRANCH 1 PIPE INLET NODE,Water,1
 Node,195,WW-WATER CONNECTIONS LOOP SUPPLY BRANCH 1 PIPE OUTLET NODE,Water,1
 Node,196,WASTEWATER TEMPERATURE SOURCE INLET WATER NODE,Water,1
 Node,197,WW-WATER CONNECTIONS LOOP SUPPLY OUTLET NODE,Water,4
 Node,198,WW-WATER CONNECTIONS LOOP DEMAND INLET NODE,Water,2
 Node,199,PIPE ADIABATIC 11 OUTLET WATER NODE,Water,1
 Node,200,WASTE WATER TANK DEMAND INLET WATER NODE,Water,1
 Node,201,WASTE WATER TANK DEMAND OUTLET WATER NODE,Water,1
 Node,202,WW-WATER CONNECTIONS LOOP DEMAND BYPASS PIPE INLET NODE,Water,1
 Node,203,WW-WATER CONNECTIONS LOOP DEMAND BYPASS PIPE OUTLET NODE,Water,1
 Node,204,PIPE ADIABATIC 12 INLET WATER NODE,Water,1
 Node,205,WW-WATER CONNECTIONS LOOP DEMAND OUTLET NODE,Water,2
 Node,206,0_BDRM_1_2 ZONE AIR NODE,Air,0
 Node,207,0_BDRM_1_3 ZONE AIR NODE,Air,0
 Node,208,0_BDRM_1_4 ZONE AIR NODE,Air,0
 Node,209,0_BDRM_2_2 ZONE AIR NODE,Air,0
 Node,210,0_BDRM_2_3 ZONE AIR NODE,Air,0
 Node,211,0_BDRM_2_4 ZONE AIR NODE,Air,0
 Node,212,0_BDRM_3_2 ZONE AIR NODE,Air,0
 Node,213,0_BDRM_3_3 ZONE AIR NODE,Air,0
 Node,214,0_BDRM_3_4 ZONE AIR NODE,Air,0
 Node,215,0_BDRM_4_2 ZONE AIR NODE,Air,0
 Node,216,0_BDRM_4_3 ZONE AIR NODE,Air,0
 Node,217,0_BDRM_4_4 ZONE AIR NODE,Air,0
 Node,218,1_BDRM_1_2 ZONE AIR NODE,Air,0
 Node,219,1_BDRM_1_3 ZONE AIR NODE,Air,0
 Node,220,1_BDRM_1_4 ZONE AIR NODE,Air,0
 Node,221,1_BDRM_2_2 ZONE AIR NODE,Air,0
 Node,222,1_BDRM_2_3 ZONE AIR NODE,Air,0
 Node,223,1_BDRM_2_4 ZONE AIR NODE,Air,0
 Node,224,1_BDRM_3_2 ZONE AIR NODE,Air,0
 Node,225,1_BDRM_3_3 ZONE AIR NODE,Air,0
 Node,226,1_BDRM_3_4 ZONE AIR NODE,Air,0
 Node,227,1_BDRM_4_2 ZONE AIR NODE,Air,0
 Node,228,1_BDRM_4_3 ZONE AIR NODE,Air,0
 Node,229,1_BDRM_4_4 ZONE AIR NODE,Air,0
 Node,230,1_BDRM_5_2 ZONE AIR NODE,Air,0
 Node,231,1_BDRM_5_3 ZONE AIR NODE,Air,0
 Node,232,1_BDRM_5_4 ZONE AIR NODE,Air,0
 Node,233,1_BDRM_6_2 ZONE AIR NODE,Air,0
 Node,234,1_BDRM_6_3 ZONE AIR NODE,Air,0
 Node,235,1_BDRM_6_4 ZONE AIR NODE,Air,0
 Node,236,1_BDRM_7_2 ZONE AIR NODE,Air,0
 Node,237,1_BDRM_7_3 ZONE AIR NODE,Air,0
 Node,238,1_BDRM_7_4 ZONE AIR NODE,Air,0
 Node,239,2_BDRM_1_2 ZONE AIR NODE,Air,0
 Node,240,2_BDRM_1_3 ZONE AIR NODE,Air,0
 Node,241,2_BDRM_1_4 ZONE AIR NODE,Air,0
 Node,242,2_BDRM_2_2 ZONE AIR NODE,Air,0
 Node,243,2_BDRM_2_3 ZONE AIR NODE,Air,0
 Node,244,2_BDRM_2_4 ZONE AIR NODE,Air,0
 Node,245,2_BDRM_3_2 ZONE AIR NODE,Air,0
 Node,246,2_BDRM_3_3 ZONE AIR NODE,Air,0
 Node,247,2_BDRM_3_4 ZONE AIR NODE,Air,0
 Node,248,3_BDRM_1_3 ZONE AIR NODE,Air,0
 Node,249,3_BDRM_1_4 ZONE AIR NODE,Air,0
 Node,250,3_BDRM_2_2 ZONE AIR NODE,Air,0
 Node,251,BATHRM_1 ZONE AIR NODE,Air,0
 Node,252,BATHRM_2 ZONE AIR NODE,Air,0
 Node,253,COFFEE_SHOP ZONE AIR NODE,Air,0
 Node,254,COMMUNITY_RM ZONE AIR NODE,Air,0
 Node,255,CORRIDOR 1 ZONE AIR NODE,Air,0
 Node,256,CORRIDOR_2 ZONE AIR NODE,Air,0
 Node,257,CORRIDOR_3 ZONE AIR NODE,Air,0
 Node,258,CORRIDOR_4 ZONE AIR NODE,Air,0
 Node,259,GARBAGE 1 ZONE AIR NODE,Air,0
 Node,260,GYM 1 ZONE AIR NODE,Air,0
 Node,261,LOBBY_ENTRY ZONE AIR NODE,Air,0
 Node,262,LT_RETAIL_1 ZONE AIR NODE,Air,0
 Node,263,LT_RETAIL_2 ZONE AIR NODE,Air,0
 Node,264,LT_RETAIL_3 ZONE AIR NODE,Air,0
 Node,265,LT_RETAIL_4 ZONE AIR NODE,Air,0
 Node,266,MAIL_SHIPPING ZONE AIR NODE,Air,0
 Node,267,OFFICE 1 ZONE AIR NODE,Air,0
 Node,268,STAIRWELL_1_2 ZONE AIR NODE,Air,0
 Node,269,STAIRWELL_1_3 ZONE AIR NODE,Air,0
 Node,270,STAIRWELL_1_4 ZONE AIR NODE,Air,0
 Node,271,STAIRWELL_2_2 ZONE AIR NODE,Air,0
 Node,272,STAIRWELL_2_3 ZONE AIR NODE,Air,0
 Node,273,STAIRWELL_2_4 ZONE AIR NODE,Air,0
 Node,274,STAIR_1 ZONE AIR NODE,Air,0
 Node,275,STAIR_2 ZONE AIR NODE,Air,0
 Node,276,MODEL OUTDOOR AIR NODE,Air,0
 Node,277,ZONE HVAC IDEAL LOADS AIR SYSTEM 41 OUTDOOR AIR INLET NODE,Air,1
 Node,278,ZONE HVAC IDEAL LOADS AIR SYSTEM 4 OUTDOOR AIR INLET NODE,Air,1
 Node,279,ZONE HVAC IDEAL LOADS AIR SYSTEM 22 OUTDOOR AIR INLET NODE,Air,1
 Node,280,ZONE HVAC IDEAL LOADS AIR SYSTEM 44 OUTDOOR AIR INLET NODE,Air,1
 Node,281,ZONE HVAC IDEAL LOADS AIR SYSTEM 52 OUTDOOR AIR INLET NODE,Air,1
 Node,282,ZONE HVAC IDEAL LOADS AIR SYSTEM 7 OUTDOOR AIR INLET NODE,Air,1
 Node,283,ZONE HVAC IDEAL LOADS AIR SYSTEM 49 OUTDOOR AIR INLET NODE,Air,1
 Node,284,ZONE HVAC IDEAL LOADS AIR SYSTEM 38 OUTDOOR AIR INLET NODE,Air,1
 Node,285,ZONE HVAC IDEAL LOADS AIR SYSTEM 39 OUTDOOR AIR INLET NODE,Air,1
 Node,286,ZONE HVAC IDEAL LOADS AIR SYSTEM 2 OUTDOOR AIR INLET NODE,Air,1
 Node,287,ZONE HVAC IDEAL LOADS AIR SYSTEM 8 OUTDOOR AIR INLET NODE,Air,1
 Node,288,ZONE HVAC IDEAL LOADS AIR SYSTEM 55 OUTDOOR AIR INLET NODE,Air,1
 Node,289,ZONE HVAC IDEAL LOADS AIR SYSTEM 50 OUTDOOR AIR INLET NODE,Air,1
 Node,290,ZONE HVAC IDEAL LOADS AIR SYSTEM 58 OUTDOOR AIR INLET NODE,Air,1
 Node,291,ZONE HVAC IDEAL LOADS AIR SYSTEM 57 OUTDOOR AIR INLET NODE,Air,1
 Node,292,ZONE HVAC IDEAL LOADS AIR SYSTEM 28 OUTDOOR AIR INLET NODE,Air,1
 Node,293,ZONE HVAC IDEAL LOADS AIR SYSTEM 40 OUTDOOR AIR INLET NODE,Air,1
 Node,294,ZONE HVAC IDEAL LOADS AIR SYSTEM 56 OUTDOOR AIR INLET NODE,Air,1
 Node,295,ZONE HVAC IDEAL LOADS AIR SYSTEM 21 OUTDOOR AIR INLET NODE,Air,1
 Node,296,ZONE HVAC IDEAL LOADS AIR SYSTEM 48 OUTDOOR AIR INLET NODE,Air,1
 Node,297,ZONE HVAC IDEAL LOADS AIR SYSTEM 60 OUTDOOR AIR INLET NODE,Air,1
 Node,298,ZONE HVAC IDEAL LOADS AIR SYSTEM 14 OUTDOOR AIR INLET NODE,Air,1
 Node,299,ZONE HVAC IDEAL LOADS AIR SYSTEM 47 OUTDOOR AIR INLET NODE,Air,1
 Node,300,ZONE HVAC IDEAL LOADS AIR SYSTEM 61 OUTDOOR AIR INLET NODE,Air,1
 Node,301,ZONE HVAC IDEAL LOADS AIR SYSTEM 24 OUTDOOR AIR INLET NODE,Air,1
 Node,302,ZONE HVAC IDEAL LOADS AIR SYSTEM 63 OUTDOOR AIR INLET NODE,Air,1
 Node,303,ZONE HVAC IDEAL LOADS AIR SYSTEM 43 OUTDOOR AIR INLET NODE,Air,1
 Node,304,ZONE HVAC IDEAL LOADS AIR SYSTEM 42 OUTDOOR AIR INLET NODE,Air,1
 Node,305,ZONE HVAC IDEAL LOADS AIR SYSTEM 65 OUTDOOR AIR INLET NODE,Air,1
 Node,306,ZONE HVAC IDEAL LOADS AIR SYSTEM 67 OUTDOOR AIR INLET NODE,Air,1
 Node,307,ZONE HVAC IDEAL LOADS AIR SYSTEM 54 OUTDOOR AIR INLET NODE,Air,1
 Node,308,ZONE HVAC IDEAL LOADS AIR SYSTEM 9 OUTDOOR AIR INLET NODE,Air,1
 Node,309,ZONE HVAC IDEAL LOADS AIR SYSTEM 45 OUTDOOR AIR INLET NODE,Air,1
 Node,310,ZONE HVAC IDEAL LOADS AIR SYSTEM 46 OUTDOOR AIR INLET NODE,Air,1
 Node,311,ZONE HVAC IDEAL LOADS AIR SYSTEM 66 OUTDOOR AIR INLET NODE,Air,1
 Node,312,ZONE HVAC IDEAL LOADS AIR SYSTEM 69 OUTDOOR AIR INLET NODE,Air,1
 Node,313,ZONE HVAC IDEAL LOADS AIR SYSTEM 11 OUTDOOR AIR INLET NODE,Air,1
 Node,314,ZONE HVAC IDEAL LOADS AIR SYSTEM 68 OUTDOOR AIR INLET NODE,Air,1
 Node,315,ZONE HVAC IDEAL LOADS AIR SYSTEM 62 OUTDOOR AIR INLET NODE,Air,1
 Node,316,ZONE HVAC IDEAL LOADS AIR SYSTEM 53 OUTDOOR AIR INLET NODE,Air,1
 Node,317,ZONE HVAC IDEAL LOADS AIR SYSTEM 36 OUTDOOR AIR INLET NODE,Air,1
 Node,318,ZONE HVAC IDEAL LOADS AIR SYSTEM 64 OUTDOOR AIR INLET NODE,Air,1
 Node,319,ZONE HVAC IDEAL LOADS AIR SYSTEM 59 OUTDOOR AIR INLET NODE,Air,1
 Node,320,ZONE HVAC IDEAL LOADS AIR SYSTEM 51 OUTDOOR AIR INLET NODE,Air,1
 Node,321,ZONE HVAC IDEAL LOADS AIR SYSTEM 70 OUTDOOR AIR INLET NODE,Air,1
 Node,322,ZONE HVAC IDEAL LOADS AIR SYSTEM 32 OUTDOOR AIR INLET NODE,Air,1
 Node,323,ZONE HVAC IDEAL LOADS AIR SYSTEM 37 OUTDOOR AIR INLET NODE,Air,1
 Node,324,ZONE HVAC IDEAL LOADS AIR SYSTEM 33 OUTDOOR AIR INLET NODE,Air,1
 Node,325,ZONE HVAC IDEAL LOADS AIR SYSTEM 34 OUTDOOR AIR INLET NODE,Air,1
 Node,326,ZONE HVAC IDEAL LOADS AIR SYSTEM 31 OUTDOOR AIR INLET NODE,Air,1
 Node,327,ZONE HVAC IDEAL LOADS AIR SYSTEM 6 OUTDOOR AIR INLET NODE,Air,1
 Node,328,ZONE HVAC IDEAL LOADS AIR SYSTEM 16 OUTDOOR AIR INLET NODE,Air,1
 Node,329,ZONE HVAC IDEAL LOADS AIR SYSTEM 10 OUTDOOR AIR INLET NODE,Air,1
 Node,330,ZONE HVAC IDEAL LOADS AIR SYSTEM 35 OUTDOOR AIR INLET NODE,Air,1
 Node,331,ZONE HVAC IDEAL LOADS AIR SYSTEM 5 OUTDOOR AIR INLET NODE,Air,1
 Node,332,ZONE HVAC IDEAL LOADS AIR SYSTEM 29 OUTDOOR AIR INLET NODE,Air,1
 Node,333,ZONE HVAC IDEAL LOADS AIR SYSTEM 17 OUTDOOR AIR INLET NODE,Air,1
 Node,334,ZONE HVAC IDEAL LOADS AIR SYSTEM 25 OUTDOOR AIR INLET NODE,Air,1
 Node,335,ZONE HVAC IDEAL LOADS AIR SYSTEM 26 OUTDOOR AIR INLET NODE,Air,1
 Node,336,ZONE HVAC IDEAL LOADS AIR SYSTEM 27 OUTDOOR AIR INLET NODE,Air,1
 Node,337,ZONE HVAC IDEAL LOADS AIR SYSTEM 30 OUTDOOR AIR INLET NODE,Air,1
 Node,338,ZONE HVAC IDEAL LOADS AIR SYSTEM 3 OUTDOOR AIR INLET NODE,Air,1
 Node,339,ZONE HVAC IDEAL LOADS AIR SYSTEM 13 OUTDOOR AIR INLET NODE,Air,1
 Node,340,ZONE HVAC IDEAL LOADS AIR SYSTEM 15 OUTDOOR AIR INLET NODE,Air,1
 Node,341,ZONE HVAC IDEAL LOADS AIR SYSTEM 18 OUTDOOR AIR INLET NODE,Air,1
 Node,342,ZONE HVAC IDEAL LOADS AIR SYSTEM 19 OUTDOOR AIR INLET NODE,Air,1
 Node,343,ZONE HVAC IDEAL LOADS AIR SYSTEM 20 OUTDOOR AIR INLET NODE,Air,1
 Node,344,ZONE HVAC IDEAL LOADS AIR SYSTEM 23 OUTDOOR AIR INLET NODE,Air,1
 Node,345,ZONE HVAC IDEAL LOADS AIR SYSTEM 1 OUTDOOR AIR INLET NODE,Air,1
 Node,346,ZONE HVAC IDEAL LOADS AIR SYSTEM 12 OUTDOOR AIR INLET NODE,Air,1
! ===============================================================
! Suspicious nodes have 0 references.  It is normal for some nodes, however.
! Listing nodes with 0 references (culled from previous list):
! <Suspicious Node>,<NodeNumber>,<Node Name>,<Node Fluid Type>,<# Times Node Referenced After Definition>
 Suspicious Node,206,0_BDRM_1_2 ZONE AIR NODE,Air,0
 Suspicious Node,207,0_BDRM_1_3 ZONE AIR NODE,Air,0
 Suspicious Node,208,0_BDRM_1_4 ZONE AIR NODE,Air,0
 Suspicious Node,209,0_BDRM_2_2 ZONE AIR NODE,Air,0
 Suspicious Node,210,0_BDRM_2_3 ZONE AIR NODE,Air,0
 Suspicious Node,211,0_BDRM_2_4 ZONE AIR NODE,Air,0
 Suspicious Node,212,0_BDRM_3_2 ZONE AIR NODE,Air,0
 Suspicious Node,213,0_BDRM_3_3 ZONE AIR NODE,Air,0
 Suspicious Node,214,0_BDRM_3_4 ZONE AIR NODE,Air,0
 Suspicious Node,215,0_BDRM_4_2 ZONE AIR NODE,Air,0
 Suspicious Node,216,0_BDRM_4_3 ZONE AIR NODE,Air,0
 Suspicious Node,217,0_BDRM_4_4 ZONE AIR NODE,Air,0
 Suspicious Node,218,1_BDRM_1_2 ZONE AIR NODE,Air,0
 Suspicious Node,219,1_BDRM_1_3 ZONE AIR NODE,Air,0
 Suspicious Node,220,1_BDRM_1_4 ZONE AIR NODE,Air,0
 Suspicious Node,221,1_BDRM_2_2 ZONE AIR NODE,Air,0
 Suspicious Node,222,1_BDRM_2_3 ZONE AIR NODE,Air,0
 Suspicious Node,223,1_BDRM_2_4 ZONE AIR NODE,Air,0
 Suspicious Node,224,1_BDRM_3_2 ZONE AIR NODE,Air,0
 Suspicious Node,225,1_BDRM_3_3 ZONE AIR NODE,Air,0
 Suspicious Node,226,1_BDRM_3_4 ZONE AIR NODE,Air,0
 Suspicious Node,227,1_BDRM_4_2 ZONE AIR NODE,Air,0
 Suspicious Node,228,1_BDRM_4_3 ZONE AIR NODE,Air,0
 Suspicious Node,229,1_BDRM_4_4 ZONE AIR NODE,Air,0
 Suspicious Node,230,1_BDRM_5_2 ZONE AIR NODE,Air,0
 Suspicious Node,231,1_BDRM_5_3 ZONE AIR NODE,Air,0
 Suspicious Node,232,1_BDRM_5_4 ZONE AIR NODE,Air,0
 Suspicious Node,233,1_BDRM_6_2 ZONE AIR NODE,Air,0
 Suspicious Node,234,1_BDRM_6_3 ZONE AIR NODE,Air,0
 Suspicious Node,235,1_BDRM_6_4 ZONE AIR NODE,Air,0
 Suspicious Node,236,1_BDRM_7_2 ZONE AIR NODE,Air,0
 Suspicious Node,237,1_BDRM_7_3 ZONE AIR NODE,Air,0
 Suspicious Node,238,1_BDRM_7_4 ZONE AIR NODE,Air,0
 Suspicious Node,239,2_BDRM_1_2 ZONE AIR NODE,Air,0
 Suspicious Node,240,2_BDRM_1_3 ZONE AIR NODE,Air,0
 Suspicious Node,241,2_BDRM_1_4 ZONE AIR NODE,Air,0
 Suspicious Node,242,2_BDRM_2_2 ZONE AIR NODE,Air,0
 Suspicious Node,243,2_BDRM_2_3 ZONE AIR NODE,Air,0
 Suspicious Node,244,2_BDRM_2_4 ZONE AIR NODE,Air,0
 Suspicious Node,245,2_BDRM_3_2 ZONE AIR NODE,Air,0
 Suspicious Node,246,2_BDRM_3_3 ZONE AIR NODE,Air,0
 Suspicious Node,247,2_BDRM_3_4 ZONE AIR NODE,Air,0
 Suspicious Node,248,3_BDRM_1_3 ZONE AIR NODE,Air,0
 Suspicious Node,249,3_BDRM_1_4 ZONE AIR NODE,Air,0
 Suspicious Node,250,3_BDRM_2_2 ZONE AIR NODE,Air,0
 Suspicious Node,251,BATHRM_1 ZONE AIR NODE,Air,0
 Suspicious Node,252,BATHRM_2 ZONE AIR NODE,Air,0
 Suspicious Node,253,COFFEE_SHOP ZONE AIR NODE,Air,0
 Suspicious Node,254,COMMUNITY_RM ZONE AIR NODE,Air,0
 Suspicious Node,255,CORRIDOR 1 ZONE AIR NODE,Air,0
 Suspicious Node,256,CORRIDOR_2 ZONE AIR NODE,Air,0
 Suspicious Node,257,CORRIDOR_3 ZONE AIR NODE,Air,0
 Suspicious Node,258,CORRIDOR_4 ZONE AIR NODE,Air,0
 Suspicious Node,259,GARBAGE 1 ZONE AIR NODE,Air,0
 Suspicious Node,260,GYM 1 ZONE AIR NODE,Air,0
 Suspicious Node,261,LOBBY_ENTRY ZONE AIR NODE,Air,0
 Suspicious Node,262,LT_RETAIL_1 ZONE AIR NODE,Air,0
 Suspicious Node,263,LT_RETAIL_2 ZONE AIR NODE,Air,0
 Suspicious Node,264,LT_RETAIL_3 ZONE AIR NODE,Air,0
 Suspicious Node,265,LT_RETAIL_4 ZONE AIR NODE,Air,0
 Suspicious Node,266,MAIL_SHIPPING ZONE AIR NODE,Air,0
 Suspicious Node,267,OFFICE 1 ZONE AIR NODE,Air,0
 Suspicious Node,268,STAIRWELL_1_2 ZONE AIR NODE,Air,0
 Suspicious Node,269,STAIRWELL_1_3 ZONE AIR NODE,Air,0
 Suspicious Node,270,STAIRWELL_1_4 ZONE AIR NODE,Air,0
 Suspicious Node,271,STAIRWELL_2_2 ZONE AIR NODE,Air,0
 Suspicious Node,272,STAIRWELL_2_3 ZONE AIR NODE,Air,0
 Suspicious Node,273,STAIRWELL_2_4 ZONE AIR NODE,Air,0
 Suspicious Node,274,STAIR_1 ZONE AIR NODE,Air,0
 Suspicious Node,275,STAIR_2 ZONE AIR NODE,Air,0
 Suspicious Node,276,MODEL OUTDOOR AIR NODE,Air,0
! ===============================================================
! <#Branch Lists>,<Number of Branch Lists>
 #Branch Lists,8
! <Branch List>,<Branch List Count>,<Branch List Name>,<Loop Name>,<Loop Type>,<Number of Branches>
! <Branch>,<Branch Count>,<Branch Name>,<Loop Name>,<Loop Type>,<Branch Inlet Node Name>,<Branch Outlet Node Name>
 Branch List,1,SERVICE HOT WATER LOOP SUPPLY BRANCHES,SERVICE HOT WATER LOOP,Plant Supply,4
   Branch,1,SERVICE HOT WATER LOOP SUPPLY INLET BRANCH,SERVICE HOT WATER LOOP,Plant Supply,SERVICE HOT WATER LOOP SUPPLY INLET NODE,SERVICE WATER HEATING PUMP OUTLET WATER NODE
   Branch,2,SERVICE HOT WATER LOOP SUPPLY BRANCH 1,SERVICE HOT WATER LOOP,Plant Supply,SWH TANK SUPPLY INLET WATER NODE,SWH TANK SUPPLY OUTLET WATER NODE
   Branch,3,SERVICE HOT WATER LOOP SUPPLY BRANCH 2,SERVICE HOT WATER LOOP,Plant Supply,PIPE ADIABATIC 1 INLET WATER NODE,PIPE ADIABATIC 1 OUTLET WATER NODE
   Branch,4,SERVICE HOT WATER LOOP SUPPLY OUTLET BRANCH,SERVICE HOT WATER LOOP,Plant Supply,ELECTRIC HOT WATER TANK SUPPLY INLET WATER NODE,SERVICE HOT WATER LOOP SUPPLY OUTLET NODE
 Branch List,2,SERVICE HOT WATER LOOP DEMAND BRANCHES,SERVICE HOT WATER LOOP,Plant Demand,5
   Branch,1,SERVICE HOT WATER LOOP DEMAND INLET BRANCH,SERVICE HOT WATER LOOP,Plant Demand,SERVICE HOT WATER LOOP DEMAND INLET NODE,PIPE ADIABATIC 3 OUTLET WATER NODE
   Branch,2,SERVICE HOT WATER LOOP DEMAND BRANCH 1,SERVICE HOT WATER LOOP,Plant Demand,PIPE ADIABATIC 2 INLET WATER NODE,PIPE ADIABATIC 2 OUTLET WATER NODE
   Branch,3,SERVICE HOT WATER LOOP DEMAND BRANCH 2,SERVICE HOT WATER LOOP,Plant Demand,SHW LOOP WATER USE CONNECTION INLET WATER NODE,SHW LOOP WATER USE CONNECTION OUTLET WATER NODE
   Branch,4,SERVICE HOT WATER LOOP DEMAND BYPASS BRANCH,SERVICE HOT WATER LOOP,Plant Demand,SERVICE HOT WATER LOOP DEMAND BYPASS PIPE INLET NODE,SERVICE HOT WATER LOOP DEMAND BYPASS PIPE OUTLET NODE
   Branch,5,SERVICE HOT WATER LOOP DEMAND OUTLET BRANCH,SERVICE HOT WATER LOOP,Plant Demand,PIPE ADIABATIC 4 INLET WATER NODE,SERVICE HOT WATER LOOP DEMAND OUTLET NODE
 Branch List,3,SERVICE PREHEAT WATER LOOP SUPPLY BRANCHES,SERVICE PREHEAT WATER LOOP,Plant Supply,4
   Branch,1,SERVICE PREHEAT WATER LOOP SUPPLY INLET BRANCH,SERVICE PREHEAT WATER LOOP,Plant Supply,SERVICE PREHEAT WATER LOOP SUPPLY INLET NODE,SERVICE PREHEAT WATER PUMP OUTLET WATER NODE
   Branch,2,SERVICE PREHEAT WATER LOOP SUPPLY BRANCH 1,SERVICE PREHEAT WATER LOOP,Plant Supply,PIRANHA SUPPLY INLET WATER NODE,PIRANHA SUPPLY OUTLET WATER NODE
   Branch,3,SERVICE PREHEAT WATER LOOP SUPPLY BRANCH 2,SERVICE PREHEAT WATER LOOP,Plant Supply,PIPE ADIABATIC 5 INLET WATER NODE,PIPE ADIABATIC 5 OUTLET WATER NODE
   Branch,4,SERVICE PREHEAT WATER LOOP SUPPLY OUTLET BRANCH,SERVICE PREHEAT WATER LOOP,Plant Supply,SERVICE PREHEAT WATER LOOP SUPPLY OUTLET PIPE NODE,SERVICE PREHEAT WATER LOOP SUPPLY OUTLET NODE
 Branch List,4,SERVICE PREHEAT WATER LOOP DEMAND BRANCHES,SERVICE PREHEAT WATER LOOP,Plant Demand,4
   Branch,1,SERVICE PREHEAT WATER LOOP DEMAND INLET BRANCH,SERVICE PREHEAT WATER LOOP,Plant Demand,SERVICE PREHEAT WATER LOOP DEMAND INLET NODE,PIPE ADIABATIC 6 OUTLET WATER NODE
   Branch,2,SERVICE PREHEAT WATER LOOP DEMAND BRANCH 1,SERVICE PREHEAT WATER LOOP,Plant Demand,SWH TANK DEMAND INLET WATER NODE,SWH TANK DEMAND OUTLET WATER NODE
   Branch,3,SERVICE PREHEAT WATER LOOP DEMAND BYPASS BRANCH,SERVICE PREHEAT WATER LOOP,Plant Demand,SERVICE PREHEAT WATER LOOP DEMAND BYPASS PIPE INLET NODE,SERVICE PREHEAT WATER LOOP DEMAND BYPASS PIPE OUTLET NODE
   Branch,4,SERVICE PREHEAT WATER LOOP DEMAND OUTLET BRANCH,SERVICE PREHEAT WATER LOOP,Plant Demand,PIPE ADIABATIC 7 INLET WATER NODE,SERVICE PREHEAT WATER LOOP DEMAND OUTLET NODE
 Branch List,5,WASTE WATER HEAT PUMP LOOP SUPPLY BRANCHES,WASTE WATER HEAT PUMP LOOP,Plant Supply,3
   Branch,1,WASTE WATER HEAT PUMP LOOP SUPPLY INLET BRANCH,WASTE WATER HEAT PUMP LOOP,Plant Supply,WASTE WATER HEAT PUMP LOOP SUPPLY INLET NODE,WASTE WATER HEAT PUMP PUMP OUTLET WATER NODE
   Branch,2,WASTE WATER HEAT PUMP LOOP SUPPLY BRANCH 1,WASTE WATER HEAT PUMP LOOP,Plant Supply,WASTE WATER TANK SUPPLY INLET WATER NODE,WASTE WATER TANK SUPPLY OUTLET WATER NODE
   Branch,3,WASTE WATER HEAT PUMP LOOP SUPPLY OUTLET BRANCH,WASTE WATER HEAT PUMP LOOP,Plant Supply,WASTE WATER HEAT PUMP LOOP SUPPLY OUTLET PIPE NODE,WASTE WATER HEAT PUMP LOOP SUPPLY OUTLET NODE
 Branch List,6,WASTE WATER HEAT PUMP LOOP DEMAND BRANCHES,WASTE WATER HEAT PUMP LOOP,Plant Demand,5
   Branch,1,WASTE WATER HEAT PUMP LOOP DEMAND INLET BRANCH,WASTE WATER HEAT PUMP LOOP,Plant Demand,WASTE WATER HEAT PUMP LOOP DEMAND INLET NODE,PIPE ADIABATIC 9 OUTLET WATER NODE
   Branch,2,WASTE WATER HEAT PUMP LOOP DEMAND BRANCH 1,WASTE WATER HEAT PUMP LOOP,Plant Demand,PIRANHA DEMAND INLET WATER NODE,PIRANHA DEMAND OUTLET WATER NODE
   Branch,3,WASTE WATER HEAT PUMP LOOP DEMAND BRANCH 2,WASTE WATER HEAT PUMP LOOP,Plant Demand,PIPE ADIABATIC 8 INLET WATER NODE,PIPE ADIABATIC 8 OUTLET WATER NODE
   Branch,4,WASTE WATER HEAT PUMP LOOP DEMAND BYPASS BRANCH,WASTE WATER HEAT PUMP LOOP,Plant Demand,WASTE WATER HEAT PUMP LOOP DEMAND BYPASS PIPE INLET NODE,WASTE WATER HEAT PUMP LOOP DEMAND BYPASS PIPE OUTLET NODE
   Branch,5,WASTE WATER HEAT PUMP LOOP DEMAND OUTLET BRANCH,WASTE WATER HEAT PUMP LOOP,Plant Demand,PIPE ADIABATIC 10 INLET WATER NODE,WASTE WATER HEAT PUMP LOOP DEMAND OUTLET NODE
 Branch List,7,WW-WATER CONNECTIONS LOOP SUPPLY BRANCHES,WW-WATER CONNECTIONS LOOP,Plant Supply,3
   Branch,1,WW-WATER CONNECTIONS LOOP SUPPLY INLET BRANCH,WW-WATER CONNECTIONS LOOP,Plant Supply,WW-WATER CONNECTIONS LOOP SUPPLY INLET NODE,WASTE WATER PUMP OUTLET WATER NODE
   Branch,2,WW-WATER CONNECTIONS LOOP SUPPLY BRANCH 1,WW-WATER CONNECTIONS LOOP,Plant Supply,WW-WATER CONNECTIONS LOOP SUPPLY BRANCH 1 PIPE INLET NODE,WW-WATER CONNECTIONS LOOP SUPPLY BRANCH 1 PIPE OUTLET NODE
   Branch,3,WW-WATER CONNECTIONS LOOP SUPPLY OUTLET BRANCH,WW-WATER CONNECTIONS LOOP,Plant Supply,WASTEWATER TEMPERATURE SOURCE INLET WATER NODE,WW-WATER CONNECTIONS LOOP SUPPLY OUTLET NODE
 Branch List,8,WW-WATER CONNECTIONS LOOP DEMAND BRANCHES,WW-WATER CONNECTIONS LOOP,Plant Demand,4
   Branch,1,WW-WATER CONNECTIONS LOOP DEMAND INLET BRANCH,WW-WATER CONNECTIONS LOOP,Plant Demand,WW-WATER CONNECTIONS LOOP DEMAND INLET NODE,PIPE ADIABATIC 11 OUTLET WATER NODE
   Branch,2,WW-WATER CONNECTIONS LOOP DEMAND BRANCH 1,WW-WATER CONNECTIONS LOOP,Plant Demand,WASTE WATER TANK DEMAND INLET WATER NODE,WASTE WATER TANK DEMAND OUTLET WATER NODE
   Branch,3,WW-WATER CONNECTIONS LOOP DEMAND BYPASS BRANCH,WW-WATER CONNECTIONS LOOP,Plant Demand,WW-WATER CONNECTIONS LOOP DEMAND BYPASS PIPE INLET NODE,WW-WATER CONNECTIONS LOOP DEMAND BYPASS PIPE OUTLET NODE
   Branch,4,WW-WATER CONNECTIONS LOOP DEMAND OUTLET BRANCH,WW-WATER CONNECTIONS LOOP,Plant Demand,PIPE ADIABATIC 12 INLET WATER NODE,WW-WATER CONNECTIONS LOOP DEMAND OUTLET NODE
! ===============================================================
! <#Supply Air Paths>,<Number of Supply Air Paths>
 #Supply Air Paths,0
! <Supply Air Path>,<Supply Air Path Count>,<Supply Air Path Name>,<AirLoopHVAC Name>
! <#Components on Supply Air Path>,<Number of Components>
! <Supply Air Path Component>,<Component Count>,<Component Type>,<Component Name>,<AirLoopHVAC Name>
! <#Outlet Nodes on Supply Air Path Component>,<Number of Nodes>
! <Supply Air Path Component Nodes>,<Node Count>,<Component Type>,<Component Name>,<Inlet Node Name>,<Outlet Node Name>,<AirLoopHVAC Name>
! ===============================================================
! <#Return Air Paths>,<Number of Return Air Paths>
 #Return Air Paths,0
! <Return Air Path>,<Return Air Path Count>,<Return Air Path Name>,<AirLoopHVAC Name>
! <#Components on Return Air Path>,<Number of Components>
! <Return Air Path Component>,<Component Count>,<Component Type>,<Component Name>,<AirLoopHVAC Name>
! <#Inlet Nodes on Return Air Path Component>,<Number of Nodes>
! <Return Air Path Component Nodes>,<Node Count>,<Component Type>,<Component Name>,<Inlet Node Name>,<Outlet Node Name>,<AirLoopHVAC Name>
! ===============================================================
! #Outdoor Air Nodes,<Number of Outdoor Air Nodes>
 #Outdoor Air Nodes,71
! <Outdoor Air Node>,<NodeNumber>,<Node Name>
 Outdoor Air Node,276,MODEL OUTDOOR AIR NODE
 Outdoor Air Node,277,ZONE HVAC IDEAL LOADS AIR SYSTEM 41 OUTDOOR AIR INLET NODE
 Outdoor Air Node,278,ZONE HVAC IDEAL LOADS AIR SYSTEM 4 OUTDOOR AIR INLET NODE
 Outdoor Air Node,279,ZONE HVAC IDEAL LOADS AIR SYSTEM 22 OUTDOOR AIR INLET NODE
 Outdoor Air Node,280,ZONE HVAC IDEAL LOADS AIR SYSTEM 44 OUTDOOR AIR INLET NODE
 Outdoor Air Node,281,ZONE HVAC IDEAL LOADS AIR SYSTEM 52 OUTDOOR AIR INLET NODE
 Outdoor Air Node,282,ZONE HVAC IDEAL LOADS AIR SYSTEM 7 OUTDOOR AIR INLET NODE
 Outdoor Air Node,283,ZONE HVAC IDEAL LOADS AIR SYSTEM 49 OUTDOOR AIR INLET NODE
 Outdoor Air Node,284,ZONE HVAC IDEAL LOADS AIR SYSTEM 38 OUTDOOR AIR INLET NODE
 Outdoor Air Node,285,ZONE HVAC IDEAL LOADS AIR SYSTEM 39 OUTDOOR AIR INLET NODE
 Outdoor Air Node,286,ZONE HVAC IDEAL LOADS AIR SYSTEM 2 OUTDOOR AIR INLET NODE
 Outdoor Air Node,287,ZONE HVAC IDEAL LOADS AIR SYSTEM 8 OUTDOOR AIR INLET NODE
 Outdoor Air Node,288,ZONE HVAC IDEAL LOADS AIR SYSTEM 55 OUTDOOR AIR INLET NODE
 Outdoor Air Node,289,ZONE HVAC IDEAL LOADS AIR SYSTEM 50 OUTDOOR AIR INLET NODE
 Outdoor Air Node,290,ZONE HVAC IDEAL LOADS AIR SYSTEM 58 OUTDOOR AIR INLET NODE
 Outdoor Air Node,291,ZONE HVAC IDEAL LOADS AIR SYSTEM 57 OUTDOOR AIR INLET NODE
 Outdoor Air Node,292,ZONE HVAC IDEAL LOADS AIR SYSTEM 28 OUTDOOR AIR INLET NODE
 Outdoor Air Node,293,ZONE HVAC IDEAL LOADS AIR SYSTEM 40 OUTDOOR AIR INLET NODE
 Outdoor Air Node,294,ZONE HVAC IDEAL LOADS AIR SYSTEM 56 OUTDOOR AIR INLET NODE
 Outdoor Air Node,295,ZONE HVAC IDEAL LOADS AIR SYSTEM 21 OUTDOOR AIR INLET NODE
 Outdoor Air Node,296,ZONE HVAC IDEAL LOADS AIR SYSTEM 48 OUTDOOR AIR INLET NODE
 Outdoor Air Node,297,ZONE HVAC IDEAL LOADS AIR SYSTEM 60 OUTDOOR AIR INLET NODE
 Outdoor Air Node,298,ZONE HVAC IDEAL LOADS AIR SYSTEM 14 OUTDOOR AIR INLET NODE
 Outdoor Air Node,299,ZONE HVAC IDEAL LOADS AIR SYSTEM 47 OUTDOOR AIR INLET NODE
 Outdoor Air Node,300,ZONE HVAC IDEAL LOADS AIR SYSTEM 61 OUTDOOR AIR INLET NODE
 Outdoor Air Node,301,ZONE HVAC IDEAL LOADS AIR SYSTEM 24 OUTDOOR AIR INLET NODE
 Outdoor Air Node,302,ZONE HVAC IDEAL LOADS AIR SYSTEM 63 OUTDOOR AIR INLET NODE
 Outdoor Air Node,303,ZONE HVAC IDEAL LOADS AIR SYSTEM 43 OUTDOOR AIR INLET NODE
 Outdoor Air Node,304,ZONE HVAC IDEAL LOADS AIR SYSTEM 42 OUTDOOR AIR INLET NODE
 Outdoor Air Node,305,ZONE HVAC IDEAL LOADS AIR SYSTEM 65 OUTDOOR AIR INLET NODE
 Outdoor Air Node,306,ZONE HVAC IDEAL LOADS AIR SYSTEM 67 OUTDOOR AIR INLET NODE
 Outdoor Air Node,307,ZONE HVAC IDEAL LOADS AIR SYSTEM 54 OUTDOOR AIR INLET NODE
 Outdoor Air Node,308,ZONE HVAC IDEAL LOADS AIR SYSTEM 9 OUTDOOR AIR INLET NODE
 Outdoor Air Node,309,ZONE HVAC IDEAL LOADS AIR SYSTEM 45 OUTDOOR AIR INLET NODE
 Outdoor Air Node,310,ZONE HVAC IDEAL LOADS AIR SYSTEM 46 OUTDOOR AIR INLET NODE
 Outdoor Air Node,311,ZONE HVAC IDEAL LOADS AIR SYSTEM 66 OUTDOOR AIR INLET NODE
 Outdoor Air Node,312,ZONE HVAC IDEAL LOADS AIR SYSTEM 69 OUTDOOR AIR INLET NODE
 Outdoor Air Node,313,ZONE HVAC IDEAL LOADS AIR SYSTEM 11 OUTDOOR AIR INLET NODE
 Outdoor Air Node,314,ZONE HVAC IDEAL LOADS AIR SYSTEM 68 OUTDOOR AIR INLET NODE
 Outdoor Air Node,315,ZONE HVAC IDEAL LOADS AIR SYSTEM 62 OUTDOOR AIR INLET NODE
 Outdoor Air Node,316,ZONE HVAC IDEAL LOADS AIR SYSTEM 53 OUTDOOR AIR INLET NODE
 Outdoor Air Node,317,ZONE HVAC IDEAL LOADS AIR SYSTEM 36 OUTDOOR AIR INLET NODE
 Outdoor Air Node,318,ZONE HVAC IDEAL LOADS AIR SYSTEM 64 OUTDOOR AIR INLET NODE
 Outdoor Air Node,319,ZONE HVAC IDEAL LOADS AIR SYSTEM 59 OUTDOOR AIR INLET NODE
 Outdoor Air Node,320,ZONE HVAC IDEAL LOADS AIR SYSTEM 51 OUTDOOR AIR INLET NODE
 Outdoor Air Node,321,ZONE HVAC IDEAL LOADS AIR SYSTEM 70 OUTDOOR AIR INLET NODE
 Outdoor Air Node,322,ZONE HVAC IDEAL LOADS AIR SYSTEM 32 OUTDOOR AIR INLET NODE
 Outdoor Air Node,323,ZONE HVAC IDEAL LOADS AIR SYSTEM 37 OUTDOOR AIR INLET NODE
 Outdoor Air Node,324,ZONE HVAC IDEAL LOADS AIR SYSTEM 33 OUTDOOR AIR INLET NODE
 Outdoor Air Node,325,ZONE HVAC IDEAL LOADS AIR SYSTEM 34 OUTDOOR AIR INLET NODE
 Outdoor Air Node,326,ZONE HVAC IDEAL LOADS AIR SYSTEM 31 OUTDOOR AIR INLET NODE
 Outdoor Air Node,327,ZONE HVAC IDEAL LOADS AIR SYSTEM 6 OUTDOOR AIR INLET NODE
 Outdoor Air Node,328,ZONE HVAC IDEAL LOADS AIR SYSTEM 16 OUTDOOR AIR INLET NODE
 Outdoor Air Node,329,ZONE HVAC IDEAL LOADS AIR SYSTEM 10 OUTDOOR AIR INLET NODE
 Outdoor Air Node,330,ZONE HVAC IDEAL LOADS AIR SYSTEM 35 OUTDOOR AIR INLET NODE
 Outdoor Air Node,331,ZONE HVAC IDEAL LOADS AIR SYSTEM 5 OUTDOOR AIR INLET NODE
 Outdoor Air Node,332,ZONE HVAC IDEAL LOADS AIR SYSTEM 29 OUTDOOR AIR INLET NODE
 Outdoor Air Node,333,ZONE HVAC IDEAL LOADS AIR SYSTEM 17 OUTDOOR AIR INLET NODE
 Outdoor Air Node,334,ZONE HVAC IDEAL LOADS AIR SYSTEM 25 OUTDOOR AIR INLET NODE
 Outdoor Air Node,335,ZONE HVAC IDEAL LOADS AIR SYSTEM 26 OUTDOOR AIR INLET NODE
 Outdoor Air Node,336,ZONE HVAC IDEAL LOADS AIR SYSTEM 27 OUTDOOR AIR INLET NODE
 Outdoor Air Node,337,ZONE HVAC IDEAL LOADS AIR SYSTEM 30 OUTDOOR AIR INLET NODE
 Outdoor Air Node,338,ZONE HVAC IDEAL LOADS AIR SYSTEM 3 OUTDOOR AIR INLET NODE
 Outdoor Air Node,339,ZONE HVAC IDEAL LOADS AIR SYSTEM 13 OUTDOOR AIR INLET NODE
 Outdoor Air Node,340,ZONE HVAC IDEAL LOADS AIR SYSTEM 15 OUTDOOR AIR INLET NODE
 Outdoor Air Node,341,ZONE HVAC IDEAL LOADS AIR SYSTEM 18 OUTDOOR AIR INLET NODE
 Outdoor Air Node,342,ZONE HVAC IDEAL LOADS AIR SYSTEM 19 OUTDOOR AIR INLET NODE
 Outdoor Air Node,343,ZONE HVAC IDEAL LOADS AIR SYSTEM 20 OUTDOOR AIR INLET NODE
 Outdoor Air Node,344,ZONE HVAC IDEAL LOADS AIR SYSTEM 23 OUTDOOR AIR INLET NODE
 Outdoor Air Node,345,ZONE HVAC IDEAL LOADS AIR SYSTEM 1 OUTDOOR AIR INLET NODE
 Outdoor Air Node,346,ZONE HVAC IDEAL LOADS AIR SYSTEM 12 OUTDOOR AIR INLET NODE
! ===============================================================
! <#Component Sets>,<Number of Component Sets>
 #Component Sets,33
! <Component Set>,<Component Set Count>,<Parent Object Type>,<Parent Object Name>,<Component Type>,<Component Name>,<Inlet Node ID>,<Outlet Node ID>,<Description>
 Component Set,1,BRANCH,SERVICE HOT WATER LOOP SUPPLY INLET BRANCH,PUMP:VARIABLESPEED,SERVICE WATER HEATING PUMP,SERVICE HOT WATER LOOP SUPPLY INLET NODE,SERVICE WATER HEATING PUMP OUTLET WATER NODE,Water Nodes
 Component Set,2,BRANCH,SERVICE HOT WATER LOOP SUPPLY BRANCH 1,WATERHEATER:MIXED,SWH TANK,SWH TANK SUPPLY INLET WATER NODE,SWH TANK SUPPLY OUTLET WATER NODE,Use Side Water Nodes
 Component Set,3,BRANCH,SERVICE HOT WATER LOOP SUPPLY BRANCH 2,PIPE:ADIABATIC,PIPE ADIABATIC 1,PIPE ADIABATIC 1 INLET WATER NODE,PIPE ADIABATIC 1 OUTLET WATER NODE,Pipe Nodes
 Component Set,4,BRANCH,SERVICE HOT WATER LOOP SUPPLY OUTLET BRANCH,WATERHEATER:MIXED,ELECTRIC HOT WATER TANK,ELECTRIC HOT WATER TANK SUPPLY INLET WATER NODE,SERVICE HOT WATER LOOP SUPPLY OUTLET NODE,Use Side Water Nodes
 Component Set,5,BRANCH,SERVICE HOT WATER LOOP DEMAND INLET BRANCH,PIPE:ADIABATIC,PIPE ADIABATIC 3,SERVICE HOT WATER LOOP DEMAND INLET NODE,PIPE ADIABATIC 3 OUTLET WATER NODE,Pipe Nodes
 Component Set,6,BRANCH,SERVICE HOT WATER LOOP DEMAND BRANCH 1,PIPE:ADIABATIC,PIPE ADIABATIC 2,PIPE ADIABATIC 2 INLET WATER NODE,PIPE ADIABATIC 2 OUTLET WATER NODE,Pipe Nodes
 Component Set,7,BRANCH,SERVICE HOT WATER LOOP DEMAND BRANCH 2,WATERUSE:CONNECTIONS,SHW LOOP WATER USE CONNECTION,SHW LOOP WATER USE CONNECTION INLET WATER NODE,SHW LOOP WATER USE CONNECTION OUTLET WATER NODE,DHW Nodes
 Component Set,8,BRANCH,SERVICE HOT WATER LOOP DEMAND BYPASS BRANCH,PIPE:ADIABATIC,SERVICE HOT WATER LOOP DEMAND BYPASS PIPE,SERVICE HOT WATER LOOP DEMAND BYPASS PIPE INLET NODE,SERVICE HOT WATER LOOP DEMAND BYPASS PIPE OUTLET NODE,Pipe Nodes
 Component Set,9,BRANCH,SERVICE HOT WATER LOOP DEMAND OUTLET BRANCH,PIPE:ADIABATIC,PIPE ADIABATIC 4,PIPE ADIABATIC 4 INLET WATER NODE,SERVICE HOT WATER LOOP DEMAND OUTLET NODE,Pipe Nodes
 Component Set,10,BRANCH,SERVICE PREHEAT WATER LOOP SUPPLY INLET BRANCH,PUMP:VARIABLESPEED,SERVICE PREHEAT WATER PUMP,SERVICE PREHEAT WATER LOOP SUPPLY INLET NODE,SERVICE PREHEAT WATER PUMP OUTLET WATER NODE,Water Nodes
 Component Set,11,BRANCH,SERVICE PREHEAT WATER LOOP SUPPLY BRANCH 1,HEATPUMP:WATERTOWATER:EQUATIONFIT:HEATING,PIRANHA,PIRANHA SUPPLY INLET WATER NODE,PIRANHA SUPPLY OUTLET WATER NODE,Hot Water Nodes
 Component Set,12,BRANCH,SERVICE PREHEAT WATER LOOP SUPPLY BRANCH 2,PIPE:ADIABATIC,PIPE ADIABATIC 5,PIPE ADIABATIC 5 INLET WATER NODE,PIPE ADIABATIC 5 OUTLET WATER NODE,Pipe Nodes
 Component Set,13,BRANCH,SERVICE PREHEAT WATER LOOP SUPPLY OUTLET BRANCH,PIPE:ADIABATIC,SERVICE PREHEAT WATER LOOP SUPPLY OUTLET PIPE,SERVICE PREHEAT WATER LOOP SUPPLY OUTLET PIPE NODE,SERVICE PREHEAT WATER LOOP SUPPLY OUTLET NODE,Pipe Nodes
 Component Set,14,BRANCH,SERVICE PREHEAT WATER LOOP DEMAND INLET BRANCH,PIPE:INDOOR,SERVICE PREHEAT WATER LOOP PIPE 314.95097567963927FT,SERVICE PREHEAT WATER LOOP DEMAND INLET NODE,SERVICE PREHEAT WATER LOOP PIPE 314.95097567963927FT OUTLET WATER NODE,Pipe Nodes
 Component Set,15,BRANCH,SERVICE PREHEAT WATER LOOP DEMAND INLET BRANCH,PIPE:ADIABATIC,PIPE ADIABATIC 6,SERVICE PREHEAT WATER LOOP PIPE 314.95097567963927FT OUTLET WATER NODE,PIPE ADIABATIC 6 OUTLET WATER NODE,Pipe Nodes
 Component Set,16,BRANCH,SERVICE PREHEAT WATER LOOP DEMAND BRANCH 1,WATERHEATER:MIXED,SWH TANK,SWH TANK DEMAND INLET WATER NODE,SWH TANK DEMAND OUTLET WATER NODE,Source Side Water Nodes
 Component Set,17,BRANCH,SERVICE PREHEAT WATER LOOP DEMAND BYPASS BRANCH,PIPE:ADIABATIC,SERVICE PREHEAT WATER LOOP DEMAND BYPASS PIPE,SERVICE PREHEAT WATER LOOP DEMAND BYPASS PIPE INLET NODE,SERVICE PREHEAT WATER LOOP DEMAND BYPASS PIPE OUTLET NODE,Pipe Nodes
 Component Set,18,BRANCH,SERVICE PREHEAT WATER LOOP DEMAND OUTLET BRANCH,PIPE:ADIABATIC,PIPE ADIABATIC 7,PIPE ADIABATIC 7 INLET WATER NODE,SERVICE PREHEAT WATER LOOP DEMAND OUTLET NODE,Pipe Nodes
 Component Set,19,BRANCH,WASTE WATER HEAT PUMP LOOP SUPPLY INLET BRANCH,PUMP:VARIABLESPEED,WASTE WATER HEAT PUMP PUMP,WASTE WATER HEAT PUMP LOOP SUPPLY INLET NODE,WASTE WATER HEAT PUMP PUMP OUTLET WATER NODE,Water Nodes
 Component Set,20,BRANCH,WASTE WATER HEAT PUMP LOOP SUPPLY BRANCH 1,WATERHEATER:MIXED,WASTE WATER TANK,WASTE WATER TANK SUPPLY INLET WATER NODE,WASTE WATER TANK SUPPLY OUTLET WATER NODE,Use Side Water Nodes
 Component Set,21,BRANCH,WASTE WATER HEAT PUMP LOOP SUPPLY OUTLET BRANCH,PIPE:ADIABATIC,WASTE WATER HEAT PUMP LOOP SUPPLY OUTLET PIPE,WASTE WATER HEAT PUMP LOOP SUPPLY OUTLET PIPE NODE,WASTE WATER HEAT PUMP LOOP SUPPLY OUTLET NODE,Pipe Nodes
 Component Set,22,BRANCH,WASTE WATER HEAT PUMP LOOP DEMAND INLET BRANCH,PIPE:ADIABATIC,PIPE ADIABATIC 9,WASTE WATER HEAT PUMP LOOP DEMAND INLET NODE,PIPE ADIABATIC 9 OUTLET WATER NODE,Pipe Nodes
 Component Set,23,BRANCH,WASTE WATER HEAT PUMP LOOP DEMAND BRANCH 1,HEATPUMP:WATERTOWATER:EQUATIONFIT:HEATING,PIRANHA,PIRANHA DEMAND INLET WATER NODE,PIRANHA DEMAND OUTLET WATER NODE,Condenser Water Nodes
 Component Set,24,BRANCH,WASTE WATER HEAT PUMP LOOP DEMAND BRANCH 2,PIPE:ADIABATIC,PIPE ADIABATIC 8,PIPE ADIABATIC 8 INLET WATER NODE,PIPE ADIABATIC 8 OUTLET WATER NODE,Pipe Nodes
 Component Set,25,BRANCH,WASTE WATER HEAT PUMP LOOP DEMAND BYPASS BRANCH,PIPE:ADIABATIC,WASTE WATER HEAT PUMP LOOP DEMAND BYPASS PIPE,WASTE WATER HEAT PUMP LOOP DEMAND BYPASS PIPE INLET NODE,WASTE WATER HEAT PUMP LOOP DEMAND BYPASS PIPE OUTLET NODE,Pipe Nodes
 Component Set,26,BRANCH,WASTE WATER HEAT PUMP LOOP DEMAND OUTLET BRANCH,PIPE:ADIABATIC,PIPE ADIABATIC 10,PIPE ADIABATIC 10 INLET WATER NODE,WASTE WATER HEAT PUMP LOOP DEMAND OUTLET NODE,Pipe Nodes
 Component Set,27,BRANCH,WW-WATER CONNECTIONS LOOP SUPPLY INLET BRANCH,PUMP:VARIABLESPEED,WASTE WATER PUMP,WW-WATER CONNECTIONS LOOP SUPPLY INLET NODE,WASTE WATER PUMP OUTLET WATER NODE,Water Nodes
 Component Set,28,BRANCH,WW-WATER CONNECTIONS LOOP SUPPLY BRANCH 1,PIPE:ADIABATIC,WW-WATER CONNECTIONS LOOP SUPPLY BRANCH 1 PIPE,WW-WATER CONNECTIONS LOOP SUPPLY BRANCH 1 PIPE INLET NODE,WW-WATER CONNECTIONS LOOP SUPPLY BRANCH 1 PIPE OUTLET NODE,Pipe Nodes
 Component Set,29,BRANCH,WW-WATER CONNECTIONS LOOP SUPPLY OUTLET BRANCH,PLANTCOMPONENT:TEMPERATURESOURCE,WASTEWATER TEMPERATURE SOURCE,WASTEWATER TEMPERATURE SOURCE INLET WATER NODE,WW-WATER CONNECTIONS LOOP SUPPLY OUTLET NODE,Chilled Water Nodes
 Component Set,30,BRANCH,WW-WATER CONNECTIONS LOOP DEMAND INLET BRANCH,PIPE:ADIABATIC,PIPE ADIABATIC 11,WW-WATER CONNECTIONS LOOP DEMAND INLET NODE,PIPE ADIABATIC 11 OUTLET WATER NODE,Pipe Nodes
 Component Set,31,BRANCH,WW-WATER CONNECTIONS LOOP DEMAND BRANCH 1,WATERHEATER:MIXED,WASTE WATER TANK,WASTE WATER TANK DEMAND INLET WATER NODE,WASTE WATER TANK DEMAND OUTLET WATER NODE,Source Side Water Nodes
 Component Set,32,BRANCH,WW-WATER CONNECTIONS LOOP DEMAND BYPASS BRANCH,PIPE:ADIABATIC,WW-WATER CONNECTIONS LOOP DEMAND BYPASS PIPE,WW-WATER CONNECTIONS LOOP DEMAND BYPASS PIPE INLET NODE,WW-WATER CONNECTIONS LOOP DEMAND BYPASS PIPE OUTLET NODE,Pipe Nodes
 Component Set,33,BRANCH,WW-WATER CONNECTIONS LOOP DEMAND OUTLET BRANCH,PIPE:ADIABATIC,PIPE ADIABATIC 12,PIPE ADIABATIC 12 INLET WATER NODE,WW-WATER CONNECTIONS LOOP DEMAND OUTLET NODE,Pipe Nodes
! ===============================================================
! <# Plant Loops>,<Number of Plant Loops>
 #Plant Loops,4
! <Plant Loop>,<Plant Loop Name>,<Loop Type>,<Inlet Node Name>,<Outlet Node Name>,<Branch List>,<Connector List>
! <Plant Loop Connector>,<Connector Type>,<Connector Name>,<Loop Name>,<Loop Type>,<Number of Inlets/Outlets>
! <Plant Loop Connector Branches>,<Connector Node Count>,<Connector Type>,<Connector Name>,<Inlet Branch>,<Outlet Branch>,<Loop Name>,<Loop Type>
! <Plant Loop Connector Nodes>,<Connector Node Count>,<Connector Type>,<Connector Name>,<Inlet Node>,<Outlet Node>,<Loop Name>,<Loop Type>
! <Plant Loop Supply Connection>,<Plant Loop Name>,<Supply Side Outlet Node Name>,<Demand Side Inlet Node Name>
! <Plant Loop Return Connection>,<Plant Loop Name>,<Demand Side Outlet Node Name>,<Supply Side Inlet Node Name>
 Plant Loop,SERVICE HOT WATER LOOP,Demand,SERVICE HOT WATER LOOP DEMAND INLET NODE,SERVICE HOT WATER LOOP DEMAND OUTLET NODE,SERVICE HOT WATER LOOP DEMAND BRANCHES,SERVICE HOT WATER LOOP DEMAND CONNECTOR LIST
   Plant Loop Connector,Splitter,SERVICE HOT WATER LOOP DEMAND SPLITTER,SERVICE HOT WATER LOOP,Demand,3
     Plant Loop Connector Branches,1,Splitter,SERVICE HOT WATER LOOP DEMAND SPLITTER,SERVICE HOT WATER LOOP DEMAND INLET BRANCH,SERVICE HOT WATER LOOP DEMAND BRANCH 1,SERVICE HOT WATER LOOP,Demand
     Plant Loop Connector Nodes,   1,Splitter,SERVICE HOT WATER LOOP DEMAND SPLITTER,PIPE ADIABATIC 3 OUTLET WATER NODE,PIPE ADIABATIC 2 INLET WATER NODE,SERVICE HOT WATER LOOP,Demand
     Plant Loop Connector Branches,2,Splitter,SERVICE HOT WATER LOOP DEMAND SPLITTER,SERVICE HOT WATER LOOP DEMAND INLET BRANCH,SERVICE HOT WATER LOOP DEMAND BRANCH 2,SERVICE HOT WATER LOOP,Demand
     Plant Loop Connector Nodes,   2,Splitter,SERVICE HOT WATER LOOP DEMAND SPLITTER,PIPE ADIABATIC 3 OUTLET WATER NODE,SHW LOOP WATER USE CONNECTION INLET WATER NODE,SERVICE HOT WATER LOOP,Demand
     Plant Loop Connector Branches,3,Splitter,SERVICE HOT WATER LOOP DEMAND SPLITTER,SERVICE HOT WATER LOOP DEMAND INLET BRANCH,SERVICE HOT WATER LOOP DEMAND BYPASS BRANCH,SERVICE HOT WATER LOOP,Demand
     Plant Loop Connector Nodes,   3,Splitter,SERVICE HOT WATER LOOP DEMAND SPLITTER,PIPE ADIABATIC 3 OUTLET WATER NODE,SERVICE HOT WATER LOOP DEMAND BYPASS PIPE INLET NODE,SERVICE HOT WATER LOOP,Demand
   Plant Loop Connector,Mixer,SERVICE HOT WATER LOOP DEMAND MIXER,SERVICE HOT WATER LOOP,Demand,3
     Plant Loop Connector Branches,1,Mixer,SERVICE HOT WATER LOOP DEMAND MIXER,SERVICE HOT WATER LOOP DEMAND BRANCH 1,SERVICE HOT WATER LOOP DEMAND OUTLET BRANCH,SERVICE HOT WATER LOOP,Demand
     Plant Loop Connector Nodes,   1,Mixer,SERVICE HOT WATER LOOP DEMAND MIXER,PIPE ADIABATIC 2 OUTLET WATER NODE,PIPE ADIABATIC 4 INLET WATER NODE,SERVICE HOT WATER LOOP,Demand
     Plant Loop Connector Branches,2,Mixer,SERVICE HOT WATER LOOP DEMAND MIXER,SERVICE HOT WATER LOOP DEMAND BRANCH 2,SERVICE HOT WATER LOOP DEMAND OUTLET BRANCH,SERVICE HOT WATER LOOP,Demand
     Plant Loop Connector Nodes,   2,Mixer,SERVICE HOT WATER LOOP DEMAND MIXER,SHW LOOP WATER USE CONNECTION OUTLET WATER NODE,PIPE ADIABATIC 4 INLET WATER NODE,SERVICE HOT WATER LOOP,Demand
     Plant Loop Connector Branches,3,Mixer,SERVICE HOT WATER LOOP DEMAND MIXER,SERVICE HOT WATER LOOP DEMAND BYPASS BRANCH,SERVICE HOT WATER LOOP DEMAND OUTLET BRANCH,SERVICE HOT WATER LOOP,Demand
     Plant Loop Connector Nodes,   3,Mixer,SERVICE HOT WATER LOOP DEMAND MIXER,SERVICE HOT WATER LOOP DEMAND BYPASS PIPE OUTLET NODE,PIPE ADIABATIC 4 INLET WATER NODE,SERVICE HOT WATER LOOP,Demand
 Plant Loop,SERVICE HOT WATER LOOP,Supply,SERVICE HOT WATER LOOP SUPPLY INLET NODE,SERVICE HOT WATER LOOP SUPPLY OUTLET NODE,SERVICE HOT WATER LOOP SUPPLY BRANCHES,SERVICE HOT WATER LOOP SUPPLY CONNECTOR LIST
   Plant Loop Connector,Splitter,SERVICE HOT WATER LOOP SUPPLY SPLITTER,SERVICE HOT WATER LOOP,Supply,2
     Plant Loop Connector Branches,1,Splitter,SERVICE HOT WATER LOOP SUPPLY SPLITTER,SERVICE HOT WATER LOOP SUPPLY INLET BRANCH,SERVICE HOT WATER LOOP SUPPLY BRANCH 1,SERVICE HOT WATER LOOP,Supply
     Plant Loop Connector Nodes,   1,Splitter,SERVICE HOT WATER LOOP SUPPLY SPLITTER,SERVICE WATER HEATING PUMP OUTLET WATER NODE,SWH TANK SUPPLY INLET WATER NODE,SERVICE HOT WATER LOOP,Supply
     Plant Loop Connector Branches,2,Splitter,SERVICE HOT WATER LOOP SUPPLY SPLITTER,SERVICE HOT WATER LOOP SUPPLY INLET BRANCH,SERVICE HOT WATER LOOP SUPPLY BRANCH 2,SERVICE HOT WATER LOOP,Supply
     Plant Loop Connector Nodes,   2,Splitter,SERVICE HOT WATER LOOP SUPPLY SPLITTER,SERVICE WATER HEATING PUMP OUTLET WATER NODE,PIPE ADIABATIC 1 INLET WATER NODE,SERVICE HOT WATER LOOP,Supply
   Plant Loop Connector,Mixer,SERVICE HOT WATER LOOP SUPPLY MIXER,SERVICE HOT WATER LOOP,Supply,2
     Plant Loop Connector Branches,1,Mixer,SERVICE HOT WATER LOOP SUPPLY MIXER,SERVICE HOT WATER LOOP SUPPLY BRANCH 1,SERVICE HOT WATER LOOP SUPPLY OUTLET BRANCH,SERVICE HOT WATER LOOP,Supply
     Plant Loop Connector Nodes,   1,Mixer,SERVICE HOT WATER LOOP SUPPLY MIXER,SWH TANK SUPPLY OUTLET WATER NODE,ELECTRIC HOT WATER TANK SUPPLY INLET WATER NODE,SERVICE HOT WATER LOOP,Supply
     Plant Loop Connector Branches,2,Mixer,SERVICE HOT WATER LOOP SUPPLY MIXER,SERVICE HOT WATER LOOP SUPPLY BRANCH 2,SERVICE HOT WATER LOOP SUPPLY OUTLET BRANCH,SERVICE HOT WATER LOOP,Supply
     Plant Loop Connector Nodes,   2,Mixer,SERVICE HOT WATER LOOP SUPPLY MIXER,PIPE ADIABATIC 1 OUTLET WATER NODE,ELECTRIC HOT WATER TANK SUPPLY INLET WATER NODE,SERVICE HOT WATER LOOP,Supply
 Plant Loop Supply Connection,SERVICE HOT WATER LOOP,SERVICE HOT WATER LOOP SUPPLY OUTLET NODE,SERVICE HOT WATER LOOP DEMAND INLET NODE
 Plant Loop Return Connection,SERVICE HOT WATER LOOP,SERVICE HOT WATER LOOP DEMAND OUTLET NODE,SERVICE HOT WATER LOOP SUPPLY INLET NODE
 Plant Loop,SERVICE PREHEAT WATER LOOP,Demand,SERVICE PREHEAT WATER LOOP DEMAND INLET NODE,SERVICE PREHEAT WATER LOOP DEMAND OUTLET NODE,SERVICE PREHEAT WATER LOOP DEMAND BRANCHES,SERVICE PREHEAT WATER LOOP DEMAND CONNECTOR LIST
   Plant Loop Connector,Splitter,SERVICE PREHEAT WATER LOOP DEMAND SPLITTER,SERVICE PREHEAT WATER LOOP,Demand,2
     Plant Loop Connector Branches,1,Splitter,SERVICE PREHEAT WATER LOOP DEMAND SPLITTER,SERVICE PREHEAT WATER LOOP DEMAND INLET BRANCH,SERVICE PREHEAT WATER LOOP DEMAND BRANCH 1,SERVICE PREHEAT WATER LOOP,Demand
     Plant Loop Connector Nodes,   1,Splitter,SERVICE PREHEAT WATER LOOP DEMAND SPLITTER,PIPE ADIABATIC 6 OUTLET WATER NODE,SWH TANK DEMAND INLET WATER NODE,SERVICE PREHEAT WATER LOOP,Demand
     Plant Loop Connector Branches,2,Splitter,SERVICE PREHEAT WATER LOOP DEMAND SPLITTER,SERVICE PREHEAT WATER LOOP DEMAND INLET BRANCH,SERVICE PREHEAT WATER LOOP DEMAND BYPASS BRANCH,SERVICE PREHEAT WATER LOOP,Demand
     Plant Loop Connector Nodes,   2,Splitter,SERVICE PREHEAT WATER LOOP DEMAND SPLITTER,PIPE ADIABATIC 6 OUTLET WATER NODE,SERVICE PREHEAT WATER LOOP DEMAND BYPASS PIPE INLET NODE,SERVICE PREHEAT WATER LOOP,Demand
   Plant Loop Connector,Mixer,SERVICE PREHEAT WATER LOOP DEMAND MIXER,SERVICE PREHEAT WATER LOOP,Demand,2
     Plant Loop Connector Branches,1,Mixer,SERVICE PREHEAT WATER LOOP DEMAND MIXER,SERVICE PREHEAT WATER LOOP DEMAND BRANCH 1,SERVICE PREHEAT WATER LOOP DEMAND OUTLET BRANCH,SERVICE PREHEAT WATER LOOP,Demand
     Plant Loop Connector Nodes,   1,Mixer,SERVICE PREHEAT WATER LOOP DEMAND MIXER,SWH TANK DEMAND OUTLET WATER NODE,PIPE ADIABATIC 7 INLET WATER NODE,SERVICE PREHEAT WATER LOOP,Demand
     Plant Loop Connector Branches,2,Mixer,SERVICE PREHEAT WATER LOOP DEMAND MIXER,SERVICE PREHEAT WATER LOOP DEMAND BYPASS BRANCH,SERVICE PREHEAT WATER LOOP DEMAND OUTLET BRANCH,SERVICE PREHEAT WATER LOOP,Demand
     Plant Loop Connector Nodes,   2,Mixer,SERVICE PREHEAT WATER LOOP DEMAND MIXER,SERVICE PREHEAT WATER LOOP DEMAND BYPASS PIPE OUTLET NODE,PIPE ADIABATIC 7 INLET WATER NODE,SERVICE PREHEAT WATER LOOP,Demand
 Plant Loop,SERVICE PREHEAT WATER LOOP,Supply,SERVICE PREHEAT WATER LOOP SUPPLY INLET NODE,SERVICE PREHEAT WATER LOOP SUPPLY OUTLET NODE,SERVICE PREHEAT WATER LOOP SUPPLY BRANCHES,SERVICE PREHEAT WATER LOOP SUPPLY CONNECTOR LIST
   Plant Loop Connector,Splitter,SERVICE PREHEAT WATER LOOP SUPPLY SPLITTER,SERVICE PREHEAT WATER LOOP,Supply,2
     Plant Loop Connector Branches,1,Splitter,SERVICE PREHEAT WATER LOOP SUPPLY SPLITTER,SERVICE PREHEAT WATER LOOP SUPPLY INLET BRANCH,SERVICE PREHEAT WATER LOOP SUPPLY BRANCH 1,SERVICE PREHEAT WATER LOOP,Supply
     Plant Loop Connector Nodes,   1,Splitter,SERVICE PREHEAT WATER LOOP SUPPLY SPLITTER,SERVICE PREHEAT WATER PUMP OUTLET WATER NODE,PIRANHA SUPPLY INLET WATER NODE,SERVICE PREHEAT WATER LOOP,Supply
     Plant Loop Connector Branches,2,Splitter,SERVICE PREHEAT WATER LOOP SUPPLY SPLITTER,SERVICE PREHEAT WATER LOOP SUPPLY INLET BRANCH,SERVICE PREHEAT WATER LOOP SUPPLY BRANCH 2,SERVICE PREHEAT WATER LOOP,Supply
     Plant Loop Connector Nodes,   2,Splitter,SERVICE PREHEAT WATER LOOP SUPPLY SPLITTER,SERVICE PREHEAT WATER PUMP OUTLET WATER NODE,PIPE ADIABATIC 5 INLET WATER NODE,SERVICE PREHEAT WATER LOOP,Supply
   Plant Loop Connector,Mixer,SERVICE PREHEAT WATER LOOP SUPPLY MIXER,SERVICE PREHEAT WATER LOOP,Supply,2
     Plant Loop Connector Branches,1,Mixer,SERVICE PREHEAT WATER LOOP SUPPLY MIXER,SERVICE PREHEAT WATER LOOP SUPPLY BRANCH 1,SERVICE PREHEAT WATER LOOP SUPPLY OUTLET BRANCH,SERVICE PREHEAT WATER LOOP,Supply
     Plant Loop Connector Nodes,   1,Mixer,SERVICE PREHEAT WATER LOOP SUPPLY MIXER,PIRANHA SUPPLY OUTLET WATER NODE,SERVICE PREHEAT WATER LOOP SUPPLY OUTLET PIPE NODE,SERVICE PREHEAT WATER LOOP,Supply
     Plant Loop Connector Branches,2,Mixer,SERVICE PREHEAT WATER LOOP SUPPLY MIXER,SERVICE PREHEAT WATER LOOP SUPPLY BRANCH 2,SERVICE PREHEAT WATER LOOP SUPPLY OUTLET BRANCH,SERVICE PREHEAT WATER LOOP,Supply
     Plant Loop Connector Nodes,   2,Mixer,SERVICE PREHEAT WATER LOOP SUPPLY MIXER,PIPE ADIABATIC 5 OUTLET WATER NODE,SERVICE PREHEAT WATER LOOP SUPPLY OUTLET PIPE NODE,SERVICE PREHEAT WATER LOOP,Supply
 Plant Loop Supply Connection,SERVICE PREHEAT WATER LOOP,SERVICE PREHEAT WATER LOOP SUPPLY OUTLET NODE,SERVICE PREHEAT WATER LOOP DEMAND INLET NODE
 Plant Loop Return Connection,SERVICE PREHEAT WATER LOOP,SERVICE PREHEAT WATER LOOP DEMAND OUTLET NODE,SERVICE PREHEAT WATER LOOP SUPPLY INLET NODE
 Plant Loop,WASTE WATER HEAT PUMP LOOP,Demand,WASTE WATER HEAT PUMP LOOP DEMAND INLET NODE,WASTE WATER HEAT PUMP LOOP DEMAND OUTLET NODE,WASTE WATER HEAT PUMP LOOP DEMAND BRANCHES,WASTE WATER HEAT PUMP LOOP DEMAND CONNECTOR LIST
   Plant Loop Connector,Splitter,WASTE WATER HEAT PUMP LOOP DEMAND SPLITTER,WASTE WATER HEAT PUMP LOOP,Demand,3
     Plant Loop Connector Branches,1,Splitter,WASTE WATER HEAT PUMP LOOP DEMAND SPLITTER,WASTE WATER HEAT PUMP LOOP DEMAND INLET BRANCH,WASTE WATER HEAT PUMP LOOP DEMAND BRANCH 1,WASTE WATER HEAT PUMP LOOP,Demand
     Plant Loop Connector Nodes,   1,Splitter,WASTE WATER HEAT PUMP LOOP DEMAND SPLITTER,PIPE ADIABATIC 9 OUTLET WATER NODE,PIRANHA DEMAND INLET WATER NODE,WASTE WATER HEAT PUMP LOOP,Demand
     Plant Loop Connector Branches,2,Splitter,WASTE WATER HEAT PUMP LOOP DEMAND SPLITTER,WASTE WATER HEAT PUMP LOOP DEMAND INLET BRANCH,WASTE WATER HEAT PUMP LOOP DEMAND BRANCH 2,WASTE WATER HEAT PUMP LOOP,Demand
     Plant Loop Connector Nodes,   2,Splitter,WASTE WATER HEAT PUMP LOOP DEMAND SPLITTER,PIPE ADIABATIC 9 OUTLET WATER NODE,PIPE ADIABATIC 8 INLET WATER NODE,WASTE WATER HEAT PUMP LOOP,Demand
     Plant Loop Connector Branches,3,Splitter,WASTE WATER HEAT PUMP LOOP DEMAND SPLITTER,WASTE WATER HEAT PUMP LOOP DEMAND INLET BRANCH,WASTE WATER HEAT PUMP LOOP DEMAND BYPASS BRANCH,WASTE WATER HEAT PUMP LOOP,Demand
     Plant Loop Connector Nodes,   3,Splitter,WASTE WATER HEAT PUMP LOOP DEMAND SPLITTER,PIPE ADIABATIC 9 OUTLET WATER NODE,WASTE WATER HEAT PUMP LOOP DEMAND BYPASS PIPE INLET NODE,WASTE WATER HEAT PUMP LOOP,Demand
   Plant Loop Connector,Mixer,WASTE WATER HEAT PUMP LOOP DEMAND MIXER,WASTE WATER HEAT PUMP LOOP,Demand,3
     Plant Loop Connector Branches,1,Mixer,WASTE WATER HEAT PUMP LOOP DEMAND MIXER,WASTE WATER HEAT PUMP LOOP DEMAND BRANCH 1,WASTE WATER HEAT PUMP LOOP DEMAND OUTLET BRANCH,WASTE WATER HEAT PUMP LOOP,Demand
     Plant Loop Connector Nodes,   1,Mixer,WASTE WATER HEAT PUMP LOOP DEMAND MIXER,PIRANHA DEMAND OUTLET WATER NODE,PIPE ADIABATIC 10 INLET WATER NODE,WASTE WATER HEAT PUMP LOOP,Demand
     Plant Loop Connector Branches,2,Mixer,WASTE WATER HEAT PUMP LOOP DEMAND MIXER,WASTE WATER HEAT PUMP LOOP DEMAND BRANCH 2,WASTE WATER HEAT PUMP LOOP DEMAND OUTLET BRANCH,WASTE WATER HEAT PUMP LOOP,Demand
     Plant Loop Connector Nodes,   2,Mixer,WASTE WATER HEAT PUMP LOOP DEMAND MIXER,PIPE ADIABATIC 8 OUTLET WATER NODE,PIPE ADIABATIC 10 INLET WATER NODE,WASTE WATER HEAT PUMP LOOP,Demand
     Plant Loop Connector Branches,3,Mixer,WASTE WATER HEAT PUMP LOOP DEMAND MIXER,WASTE WATER HEAT PUMP LOOP DEMAND BYPASS BRANCH,WASTE WATER HEAT PUMP LOOP DEMAND OUTLET BRANCH,WASTE WATER HEAT PUMP LOOP,Demand
     Plant Loop Connector Nodes,   3,Mixer,WASTE WATER HEAT PUMP LOOP DEMAND MIXER,WASTE WATER HEAT PUMP LOOP DEMAND BYPASS PIPE OUTLET NODE,PIPE ADIABATIC 10 INLET WATER NODE,WASTE WATER HEAT PUMP LOOP,Demand
 Plant Loop,WASTE WATER HEAT PUMP LOOP,Supply,WASTE WATER HEAT PUMP LOOP SUPPLY INLET NODE,WASTE WATER HEAT PUMP LOOP SUPPLY OUTLET NODE,WASTE WATER HEAT PUMP LOOP SUPPLY BRANCHES,WASTE WATER HEAT PUMP LOOP SUPPLY CONNECTOR LIST
   Plant Loop Connector,Splitter,WASTE WATER HEAT PUMP LOOP SUPPLY SPLITTER,WASTE WATER HEAT PUMP LOOP,Supply,1
     Plant Loop Connector Branches,1,Splitter,WASTE WATER HEAT PUMP LOOP SUPPLY SPLITTER,WASTE WATER HEAT PUMP LOOP SUPPLY INLET BRANCH,WASTE WATER HEAT PUMP LOOP SUPPLY BRANCH 1,WASTE WATER HEAT PUMP LOOP,Supply
     Plant Loop Connector Nodes,   1,Splitter,WASTE WATER HEAT PUMP LOOP SUPPLY SPLITTER,WASTE WATER HEAT PUMP PUMP OUTLET WATER NODE,WASTE WATER TANK SUPPLY INLET WATER NODE,WASTE WATER HEAT PUMP LOOP,Supply
   Plant Loop Connector,Mixer,WASTE WATER HEAT PUMP LOOP SUPPLY MIXER,WASTE WATER HEAT PUMP LOOP,Supply,1
     Plant Loop Connector Branches,1,Mixer,WASTE WATER HEAT PUMP LOOP SUPPLY MIXER,WASTE WATER HEAT PUMP LOOP SUPPLY BRANCH 1,WASTE WATER HEAT PUMP LOOP SUPPLY OUTLET BRANCH,WASTE WATER HEAT PUMP LOOP,Supply
     Plant Loop Connector Nodes,   1,Mixer,WASTE WATER HEAT PUMP LOOP SUPPLY MIXER,WASTE WATER TANK SUPPLY OUTLET WATER NODE,WASTE WATER HEAT PUMP LOOP SUPPLY OUTLET PIPE NODE,WASTE WATER HEAT PUMP LOOP,Supply
 Plant Loop Supply Connection,WASTE WATER HEAT PUMP LOOP,WASTE WATER HEAT PUMP LOOP SUPPLY OUTLET NODE,WASTE WATER HEAT PUMP LOOP DEMAND INLET NODE
 Plant Loop Return Connection,WASTE WATER HEAT PUMP LOOP,WASTE WATER HEAT PUMP LOOP DEMAND OUTLET NODE,WASTE WATER HEAT PUMP LOOP SUPPLY INLET NODE
 Plant Loop,WW-WATER CONNECTIONS LOOP,Demand,WW-WATER CONNECTIONS LOOP DEMAND INLET NODE,WW-WATER CONNECTIONS LOOP DEMAND OUTLET NODE,WW-WATER CONNECTIONS LOOP DEMAND BRANCHES,WW-WATER CONNECTIONS LOOP DEMAND CONNECTOR LIST
   Plant Loop Connector,Splitter,WW-WATER CONNECTIONS LOOP DEMAND SPLITTER,WW-WATER CONNECTIONS LOOP,Demand,2
     Plant Loop Connector Branches,1,Splitter,WW-WATER CONNECTIONS LOOP DEMAND SPLITTER,WW-WATER CONNECTIONS LOOP DEMAND INLET BRANCH,WW-WATER CONNECTIONS LOOP DEMAND BRANCH 1,WW-WATER CONNECTIONS LOOP,Demand
     Plant Loop Connector Nodes,   1,Splitter,WW-WATER CONNECTIONS LOOP DEMAND SPLITTER,PIPE ADIABATIC 11 OUTLET WATER NODE,WASTE WATER TANK DEMAND INLET WATER NODE,WW-WATER CONNECTIONS LOOP,Demand
     Plant Loop Connector Branches,2,Splitter,WW-WATER CONNECTIONS LOOP DEMAND SPLITTER,WW-WATER CONNECTIONS LOOP DEMAND INLET BRANCH,WW-WATER CONNECTIONS LOOP DEMAND BYPASS BRANCH,WW-WATER CONNECTIONS LOOP,Demand
     Plant Loop Connector Nodes,   2,Splitter,WW-WATER CONNECTIONS LOOP DEMAND SPLITTER,PIPE ADIABATIC 11 OUTLET WATER NODE,WW-WATER CONNECTIONS LOOP DEMAND BYPASS PIPE INLET NODE,WW-WATER CONNECTIONS LOOP,Demand
   Plant Loop Connector,Mixer,WW-WATER CONNECTIONS LOOP DEMAND MIXER,WW-WATER CONNECTIONS LOOP,Demand,2
     Plant Loop Connector Branches,1,Mixer,WW-WATER CONNECTIONS LOOP DEMAND MIXER,WW-WATER CONNECTIONS LOOP DEMAND BRANCH 1,WW-WATER CONNECTIONS LOOP DEMAND OUTLET BRANCH,WW-WATER CONNECTIONS LOOP,Demand
     Plant Loop Connector Nodes,   1,Mixer,WW-WATER CONNECTIONS LOOP DEMAND MIXER,WASTE WATER TANK DEMAND OUTLET WATER NODE,PIPE ADIABATIC 12 INLET WATER NODE,WW-WATER CONNECTIONS LOOP,Demand
     Plant Loop Connector Branches,2,Mixer,WW-WATER CONNECTIONS LOOP DEMAND MIXER,WW-WATER CONNECTIONS LOOP DEMAND BYPASS BRANCH,WW-WATER CONNECTIONS LOOP DEMAND OUTLET BRANCH,WW-WATER CONNECTIONS LOOP,Demand
     Plant Loop Connector Nodes,   2,Mixer,WW-WATER CONNECTIONS LOOP DEMAND MIXER,WW-WATER CONNECTIONS LOOP DEMAND BYPASS PIPE OUTLET NODE,PIPE ADIABATIC 12 INLET WATER NODE,WW-WATER CONNECTIONS LOOP,Demand
 Plant Loop,WW-WATER CONNECTIONS LOOP,Supply,WW-WATER CONNECTIONS LOOP SUPPLY INLET NODE,WW-WATER CONNECTIONS LOOP SUPPLY OUTLET NODE,WW-WATER CONNECTIONS LOOP SUPPLY BRANCHES,WW-WATER CONNECTIONS LOOP SUPPLY CONNECTOR LIST
   Plant Loop Connector,Splitter,WW-WATER CONNECTIONS LOOP SUPPLY SPLITTER,WW-WATER CONNECTIONS LOOP,Supply,1
     Plant Loop Connector Branches,1,Splitter,WW-WATER CONNECTIONS LOOP SUPPLY SPLITTER,WW-WATER CONNECTIONS LOOP SUPPLY INLET BRANCH,WW-WATER CONNECTIONS LOOP SUPPLY BRANCH 1,WW-WATER CONNECTIONS LOOP,Supply
     Plant Loop Connector Nodes,   1,Splitter,WW-WATER CONNECTIONS LOOP SUPPLY SPLITTER,WASTE WATER PUMP OUTLET WATER NODE,WW-WATER CONNECTIONS LOOP SUPPLY BRANCH 1 PIPE INLET NODE,WW-WATER CONNECTIONS LOOP,Supply
   Plant Loop Connector,Mixer,WW-WATER CONNECTIONS LOOP SUPPLY MIXER,WW-WATER CONNECTIONS LOOP,Supply,1
     Plant Loop Connector Branches,1,Mixer,WW-WATER CONNECTIONS LOOP SUPPLY MIXER,WW-WATER CONNECTIONS LOOP SUPPLY BRANCH 1,WW-WATER CONNECTIONS LOOP SUPPLY OUTLET BRANCH,WW-WATER CONNECTIONS LOOP,Supply
     Plant Loop Connector Nodes,   1,Mixer,WW-WATER CONNECTIONS LOOP SUPPLY MIXER,WW-WATER CONNECTIONS LOOP SUPPLY BRANCH 1 PIPE OUTLET NODE,WASTEWATER TEMPERATURE SOURCE INLET WATER NODE,WW-WATER CONNECTIONS LOOP,Supply
 Plant Loop Supply Connection,WW-WATER CONNECTIONS LOOP,WW-WATER CONNECTIONS LOOP SUPPLY OUTLET NODE,WW-WATER CONNECTIONS LOOP DEMAND INLET NODE
 Plant Loop Return Connection,WW-WATER CONNECTIONS LOOP,WW-WATER CONNECTIONS LOOP DEMAND OUTLET NODE,WW-WATER CONNECTIONS LOOP SUPPLY INLET NODE
! ===============================================================
! <# Condenser Loops>,<Number of Condenser Loops>
 #Condenser Loops,0
! <Condenser Loop>,<Condenser Loop Name>,<Loop Type>,<Inlet Node Name>,<Outlet Node Name>,<Branch List>,<Connector List>
! <Condenser Loop Connector>,<Connector Type>,<Connector Name>,<Loop Name>,<Loop Type>,<Number of Inlets/Outlets>
! <Condenser Loop Connector Branches>,<Connector Node Count>,<Connector Type>,<Connector Name>,<Inlet Branch>,<Outlet Branch>,<Loop Name>,<Loop Type>
! <Condenser Loop Connector Nodes>,<Connector Node Count>,<Connector Type>,<Connector Name>,<Inlet Node>,<Outlet Node>,<Loop Name>,<Loop Type>
! <Condenser Loop Supply Connection>,<Condenser Loop Name>,<Supply Side Outlet Node Name>,<Demand Side Inlet Node Name>
! <Condenser Loop Return Connection>,<Condenser Loop Name>,<Demand Side Outlet Node Name>,<Supply Side Inlet Node Name>
! ===============================================================
! <# Controlled Zones>,<Number of Controlled Zones>
 #Controlled Zones,70
! <Controlled Zone>,<Controlled Zone Name>,<Equip List Name>,<Control List Name>,<Zone Node Name>,<# Inlet Nodes>,<# Exhaust Nodes>,<# Return Nodes>
! <Controlled Zone Inlet>,<Inlet Node Count>,<Controlled Zone Name>,<Supply Air Inlet Node Name>,<SD Sys:Cooling/Heating [DD:Cooling] Inlet Node Name>,<DD Sys:Heating Inlet Node Name>
! <Controlled Zone Exhaust>,<Exhaust Node Count>,<Controlled Zone Name>,<Exhaust Air Node Name>
 Controlled Zone,0_BDRM_1_2,0_BDRM_1_2 EQUIPMENT LIST,,0_BDRM_1_2 ZONE AIR NODE,1,1,0
   Controlled Zone Inlet,1,0_BDRM_1_2,NODE 82,Undefined,N/A
   Controlled Zone Exhaust,1,0_BDRM_1_2,NODE 81
 Controlled Zone,0_BDRM_1_3,0_BDRM_1_3 EQUIPMENT LIST,,0_BDRM_1_3 ZONE AIR NODE,1,1,0
   Controlled Zone Inlet,1,0_BDRM_1_3,NODE 8,Undefined,N/A
   Controlled Zone Exhaust,1,0_BDRM_1_3,NODE 7
 Controlled Zone,0_BDRM_1_4,0_BDRM_1_4 EQUIPMENT LIST,,0_BDRM_1_4 ZONE AIR NODE,1,1,0
   Controlled Zone Inlet,1,0_BDRM_1_4,NODE 44,Undefined,N/A
   Controlled Zone Exhaust,1,0_BDRM_1_4,NODE 43
 Controlled Zone,0_BDRM_2_2,0_BDRM_2_2 EQUIPMENT LIST,,0_BDRM_2_2 ZONE AIR NODE,1,1,0
   Controlled Zone Inlet,1,0_BDRM_2_2,NODE 88,Undefined,N/A
   Controlled Zone Exhaust,1,0_BDRM_2_2,NODE 87
 Controlled Zone,0_BDRM_2_3,0_BDRM_2_3 EQUIPMENT LIST,,0_BDRM_2_3 ZONE AIR NODE,1,1,0
   Controlled Zone Inlet,1,0_BDRM_2_3,NODE 104,Undefined,N/A
   Controlled Zone Exhaust,1,0_BDRM_2_3,NODE 103
 Controlled Zone,0_BDRM_2_4,0_BDRM_2_4 EQUIPMENT LIST,,0_BDRM_2_4 ZONE AIR NODE,1,1,0
   Controlled Zone Inlet,1,0_BDRM_2_4,NODE 14,Undefined,N/A
   Controlled Zone Exhaust,1,0_BDRM_2_4,NODE 13
 Controlled Zone,0_BDRM_3_2,0_BDRM_3_2 EQUIPMENT LIST,,0_BDRM_3_2 ZONE AIR NODE,1,1,0
   Controlled Zone Inlet,1,0_BDRM_3_2,NODE 98,Undefined,N/A
   Controlled Zone Exhaust,1,0_BDRM_3_2,NODE 97
 Controlled Zone,0_BDRM_3_3,0_BDRM_3_3 EQUIPMENT LIST,,0_BDRM_3_3 ZONE AIR NODE,1,1,0
   Controlled Zone Inlet,1,0_BDRM_3_3,NODE 76,Undefined,N/A
   Controlled Zone Exhaust,1,0_BDRM_3_3,NODE 75
 Controlled Zone,0_BDRM_3_4,0_BDRM_3_4 EQUIPMENT LIST,,0_BDRM_3_4 ZONE AIR NODE,1,1,0
   Controlled Zone Inlet,1,0_BDRM_3_4,NODE 78,Undefined,N/A
   Controlled Zone Exhaust,1,0_BDRM_3_4,NODE 77
 Controlled Zone,0_BDRM_4_2,0_BDRM_4_2 EQUIPMENT LIST,,0_BDRM_4_2 ZONE AIR NODE,1,1,0
   Controlled Zone Inlet,1,0_BDRM_4_2,NODE 4,Undefined,N/A
   Controlled Zone Exhaust,1,0_BDRM_4_2,NODE 3
 Controlled Zone,0_BDRM_4_3,0_BDRM_4_3 EQUIPMENT LIST,,0_BDRM_4_3 ZONE AIR NODE,1,1,0
   Controlled Zone Inlet,1,0_BDRM_4_3,NODE 16,Undefined,N/A
   Controlled Zone Exhaust,1,0_BDRM_4_3,NODE 15
 Controlled Zone,0_BDRM_4_4,0_BDRM_4_4 EQUIPMENT LIST,,0_BDRM_4_4 ZONE AIR NODE,1,1,0
   Controlled Zone Inlet,1,0_BDRM_4_4,NODE 110,Undefined,N/A
   Controlled Zone Exhaust,1,0_BDRM_4_4,NODE 109
 Controlled Zone,1_BDRM_1_2,1_BDRM_1_2 EQUIPMENT LIST,,1_BDRM_1_2 ZONE AIR NODE,1,1,0
   Controlled Zone Inlet,1,1_BDRM_1_2,NODE 100,Undefined,N/A
   Controlled Zone Exhaust,1,1_BDRM_1_2,NODE 99
 Controlled Zone,1_BDRM_1_3,1_BDRM_1_3 EQUIPMENT LIST,,1_BDRM_1_3 ZONE AIR NODE,1,1,0
   Controlled Zone Inlet,1,1_BDRM_1_3,NODE 116,Undefined,N/A
   Controlled Zone Exhaust,1,1_BDRM_1_3,NODE 115
 Controlled Zone,1_BDRM_1_4,1_BDRM_1_4 EQUIPMENT LIST,,1_BDRM_1_4 ZONE AIR NODE,1,1,0
   Controlled Zone Inlet,1,1_BDRM_1_4,NODE 114,Undefined,N/A
   Controlled Zone Exhaust,1,1_BDRM_1_4,NODE 113
 Controlled Zone,1_BDRM_2_2,1_BDRM_2_2 EQUIPMENT LIST,,1_BDRM_2_2 ZONE AIR NODE,1,1,0
   Controlled Zone Inlet,1,1_BDRM_2_2,NODE 56,Undefined,N/A
   Controlled Zone Exhaust,1,1_BDRM_2_2,NODE 55
 Controlled Zone,1_BDRM_2_3,1_BDRM_2_3 EQUIPMENT LIST,,1_BDRM_2_3 ZONE AIR NODE,1,1,0
   Controlled Zone Inlet,1,1_BDRM_2_3,NODE 80,Undefined,N/A
   Controlled Zone Exhaust,1,1_BDRM_2_3,NODE 79
 Controlled Zone,1_BDRM_2_4,1_BDRM_2_4 EQUIPMENT LIST,,1_BDRM_2_4 ZONE AIR NODE,1,1,0
   Controlled Zone Inlet,1,1_BDRM_2_4,NODE 112,Undefined,N/A
   Controlled Zone Exhaust,1,1_BDRM_2_4,NODE 111
 Controlled Zone,1_BDRM_3_2,1_BDRM_3_2 EQUIPMENT LIST,,1_BDRM_3_2 ZONE AIR NODE,1,1,0
   Controlled Zone Inlet,1,1_BDRM_3_2,NODE 42,Undefined,N/A
   Controlled Zone Exhaust,1,1_BDRM_3_2,NODE 41
 Controlled Zone,1_BDRM_3_3,1_BDRM_3_3 EQUIPMENT LIST,,1_BDRM_3_3 ZONE AIR NODE,1,1,0
   Controlled Zone Inlet,1,1_BDRM_3_3,NODE 96,Undefined,N/A
   Controlled Zone Exhaust,1,1_BDRM_3_3,NODE 95
 Controlled Zone,1_BDRM_3_4,1_BDRM_3_4 EQUIPMENT LIST,,1_BDRM_3_4 ZONE AIR NODE,1,1,0
   Controlled Zone Inlet,1,1_BDRM_3_4,NODE 120,Undefined,N/A
   Controlled Zone Exhaust,1,1_BDRM_3_4,NODE 119
 Controlled Zone,1_BDRM_4_2,1_BDRM_4_2 EQUIPMENT LIST,,1_BDRM_4_2 ZONE AIR NODE,1,1,0
   Controlled Zone Inlet,1,1_BDRM_4_2,NODE 28,Undefined,N/A
   Controlled Zone Exhaust,1,1_BDRM_4_2,NODE 27
 Controlled Zone,1_BDRM_4_3,1_BDRM_4_3 EQUIPMENT LIST,,1_BDRM_4_3 ZONE AIR NODE,1,1,0
   Controlled Zone Inlet,1,1_BDRM_4_3,NODE 94,Undefined,N/A
   Controlled Zone Exhaust,1,1_BDRM_4_3,NODE 93
 Controlled Zone,1_BDRM_4_4,1_BDRM_4_4 EQUIPMENT LIST,,1_BDRM_4_4 ZONE AIR NODE,1,1,0
   Controlled Zone Inlet,1,1_BDRM_4_4,NODE 122,Undefined,N/A
   Controlled Zone Exhaust,1,1_BDRM_4_4,NODE 121
 Controlled Zone,1_BDRM_5_2,1_BDRM_5_2 EQUIPMENT LIST,,1_BDRM_5_2 ZONE AIR NODE,1,1,0
   Controlled Zone Inlet,1,1_BDRM_5_2,NODE 48,Undefined,N/A
   Controlled Zone Exhaust,1,1_BDRM_5_2,NODE 47
 Controlled Zone,1_BDRM_5_3,1_BDRM_5_3 EQUIPMENT LIST,,1_BDRM_5_3 ZONE AIR NODE,1,1,0
   Controlled Zone Inlet,1,1_BDRM_5_3,NODE 126,Undefined,N/A
   Controlled Zone Exhaust,1,1_BDRM_5_3,NODE 125
 Controlled Zone,1_BDRM_5_4,1_BDRM_5_4 EQUIPMENT LIST,,1_BDRM_5_4 ZONE AIR NODE,1,1,0
   Controlled Zone Inlet,1,1_BDRM_5_4,NODE 86,Undefined,N/A
   Controlled Zone Exhaust,1,1_BDRM_5_4,NODE 85
 Controlled Zone,1_BDRM_6_2,1_BDRM_6_2 EQUIPMENT LIST,,1_BDRM_6_2 ZONE AIR NODE,1,1,0
   Controlled Zone Inlet,1,1_BDRM_6_2,NODE 84,Undefined,N/A
   Controlled Zone Exhaust,1,1_BDRM_6_2,NODE 83
 Controlled Zone,1_BDRM_6_3,1_BDRM_6_3 EQUIPMENT LIST,,1_BDRM_6_3 ZONE AIR NODE,1,1,0
   Controlled Zone Inlet,1,1_BDRM_6_3,NODE 130,Undefined,N/A
   Controlled Zone Exhaust,1,1_BDRM_6_3,NODE 129
 Controlled Zone,1_BDRM_6_4,1_BDRM_6_4 EQUIPMENT LIST,,1_BDRM_6_4 ZONE AIR NODE,1,1,0
   Controlled Zone Inlet,1,1_BDRM_6_4,NODE 134,Undefined,N/A
   Controlled Zone Exhaust,1,1_BDRM_6_4,NODE 133
 Controlled Zone,1_BDRM_7_2,1_BDRM_7_2 EQUIPMENT LIST,,1_BDRM_7_2 ZONE AIR NODE,1,1,0
   Controlled Zone Inlet,1,1_BDRM_7_2,NODE 108,Undefined,N/A
   Controlled Zone Exhaust,1,1_BDRM_7_2,NODE 107
 Controlled Zone,1_BDRM_7_3,1_BDRM_7_3 EQUIPMENT LIST,,1_BDRM_7_3 ZONE AIR NODE,1,1,0
   Controlled Zone Inlet,1,1_BDRM_7_3,NODE 18,Undefined,N/A
   Controlled Zone Exhaust,1,1_BDRM_7_3,NODE 17
 Controlled Zone,1_BDRM_7_4,1_BDRM_7_4 EQUIPMENT LIST,,1_BDRM_7_4 ZONE AIR NODE,1,1,0
   Controlled Zone Inlet,1,1_BDRM_7_4,NODE 90,Undefined,N/A
   Controlled Zone Exhaust,1,1_BDRM_7_4,NODE 89
 Controlled Zone,2_BDRM_1_2,2_BDRM_1_2 EQUIPMENT LIST,,2_BDRM_1_2 ZONE AIR NODE,1,1,0
   Controlled Zone Inlet,1,2_BDRM_1_2,NODE 92,Undefined,N/A
   Controlled Zone Exhaust,1,2_BDRM_1_2,NODE 91
 Controlled Zone,2_BDRM_1_3,2_BDRM_1_3 EQUIPMENT LIST,,2_BDRM_1_3 ZONE AIR NODE,1,1,0
   Controlled Zone Inlet,1,2_BDRM_1_3,NODE 132,Undefined,N/A
   Controlled Zone Exhaust,1,2_BDRM_1_3,NODE 131
 Controlled Zone,2_BDRM_1_4,2_BDRM_1_4 EQUIPMENT LIST,,2_BDRM_1_4 ZONE AIR NODE,1,1,0
   Controlled Zone Inlet,1,2_BDRM_1_4,NODE 138,Undefined,N/A
   Controlled Zone Exhaust,1,2_BDRM_1_4,NODE 137
 Controlled Zone,2_BDRM_2_2,2_BDRM_2_2 EQUIPMENT LIST,,2_BDRM_2_2 ZONE AIR NODE,1,1,0
   Controlled Zone Inlet,1,2_BDRM_2_2,NODE 22,Undefined,N/A
   Controlled Zone Exhaust,1,2_BDRM_2_2,NODE 21
 Controlled Zone,2_BDRM_2_3,2_BDRM_2_3 EQUIPMENT LIST,,2_BDRM_2_3 ZONE AIR NODE,1,1,0
   Controlled Zone Inlet,1,2_BDRM_2_3,NODE 136,Undefined,N/A
   Controlled Zone Exhaust,1,2_BDRM_2_3,NODE 135
 Controlled Zone,2_BDRM_2_4,2_BDRM_2_4 EQUIPMENT LIST,,2_BDRM_2_4 ZONE AIR NODE,1,1,0
   Controlled Zone Inlet,1,2_BDRM_2_4,NODE 124,Undefined,N/A
   Controlled Zone Exhaust,1,2_BDRM_2_4,NODE 123
 Controlled Zone,2_BDRM_3_2,2_BDRM_3_2 EQUIPMENT LIST,,2_BDRM_3_2 ZONE AIR NODE,1,1,0
   Controlled Zone Inlet,1,2_BDRM_3_2,NODE 106,Undefined,N/A
   Controlled Zone Exhaust,1,2_BDRM_3_2,NODE 105
 Controlled Zone,2_BDRM_3_3,2_BDRM_3_3 EQUIPMENT LIST,,2_BDRM_3_3 ZONE AIR NODE,1,1,0
   Controlled Zone Inlet,1,2_BDRM_3_3,NODE 72,Undefined,N/A
   Controlled Zone Exhaust,1,2_BDRM_3_3,NODE 71
 Controlled Zone,2_BDRM_3_4,2_BDRM_3_4 EQUIPMENT LIST,,2_BDRM_3_4 ZONE AIR NODE,1,1,0
   Controlled Zone Inlet,1,2_BDRM_3_4,NODE 128,Undefined,N/A
   Controlled Zone Exhaust,1,2_BDRM_3_4,NODE 127
 Controlled Zone,3_BDRM_1_3,3_BDRM_1_3 EQUIPMENT LIST,,3_BDRM_1_3 ZONE AIR NODE,1,1,0
   Controlled Zone Inlet,1,3_BDRM_1_3,NODE 118,Undefined,N/A
   Controlled Zone Exhaust,1,3_BDRM_1_3,NODE 117
 Controlled Zone,3_BDRM_1_4,3_BDRM_1_4 EQUIPMENT LIST,,3_BDRM_1_4 ZONE AIR NODE,1,1,0
   Controlled Zone Inlet,1,3_BDRM_1_4,NODE 102,Undefined,N/A
   Controlled Zone Exhaust,1,3_BDRM_1_4,NODE 101
 Controlled Zone,3_BDRM_2_2,3_BDRM_2_2 EQUIPMENT LIST,,3_BDRM_2_2 ZONE AIR NODE,1,1,0
   Controlled Zone Inlet,1,3_BDRM_2_2,NODE 140,Undefined,N/A
   Controlled Zone Exhaust,1,3_BDRM_2_2,NODE 139
 Controlled Zone,BATHRM_1,BATHRM_1 EQUIPMENT LIST,,BATHRM_1 ZONE AIR NODE,1,1,0
   Controlled Zone Inlet,1,BATHRM_1,NODE 64,Undefined,N/A
   Controlled Zone Exhaust,1,BATHRM_1,NODE 63
 Controlled Zone,BATHRM_2,BATHRM_2 EQUIPMENT LIST,,BATHRM_2 ZONE AIR NODE,1,1,0
   Controlled Zone Inlet,1,BATHRM_2,NODE 74,Undefined,N/A
   Controlled Zone Exhaust,1,BATHRM_2,NODE 73
 Controlled Zone,COFFEE_SHOP,COFFEE_SHOP EQUIPMENT LIST,,COFFEE_SHOP ZONE AIR NODE,1,1,0
   Controlled Zone Inlet,1,COFFEE_SHOP,NODE 66,Undefined,N/A
   Controlled Zone Exhaust,1,COFFEE_SHOP,NODE 65
 Controlled Zone,COMMUNITY_RM,COMMUNITY_RM EQUIPMENT LIST,,COMMUNITY_RM ZONE AIR NODE,1,1,0
   Controlled Zone Inlet,1,COMMUNITY_RM,NODE 68,Undefined,N/A
   Controlled Zone Exhaust,1,COMMUNITY_RM,NODE 67
 Controlled Zone,CORRIDOR 1,CORRIDOR 1 EQUIPMENT LIST,,CORRIDOR 1 ZONE AIR NODE,1,1,0
   Controlled Zone Inlet,1,CORRIDOR 1,NODE 62,Undefined,N/A
   Controlled Zone Exhaust,1,CORRIDOR 1,NODE 61
 Controlled Zone,CORRIDOR_2,CORRIDOR_2 EQUIPMENT LIST,,CORRIDOR_2 ZONE AIR NODE,1,1,0
   Controlled Zone Inlet,1,CORRIDOR_2,NODE 12,Undefined,N/A
   Controlled Zone Exhaust,1,CORRIDOR_2,NODE 11
 Controlled Zone,CORRIDOR_3,CORRIDOR_3 EQUIPMENT LIST,,CORRIDOR_3 ZONE AIR NODE,1,1,0
   Controlled Zone Inlet,1,CORRIDOR_3,NODE 32,Undefined,N/A
   Controlled Zone Exhaust,1,CORRIDOR_3,NODE 31
 Controlled Zone,CORRIDOR_4,CORRIDOR_4 EQUIPMENT LIST,,CORRIDOR_4 ZONE AIR NODE,1,1,0
   Controlled Zone Inlet,1,CORRIDOR_4,NODE 20,Undefined,N/A
   Controlled Zone Exhaust,1,CORRIDOR_4,NODE 19
 Controlled Zone,GARBAGE 1,GARBAGE 1 EQUIPMENT LIST,,GARBAGE 1 ZONE AIR NODE,1,1,0
   Controlled Zone Inlet,1,GARBAGE 1,NODE 70,Undefined,N/A
   Controlled Zone Exhaust,1,GARBAGE 1,NODE 69
 Controlled Zone,GYM 1,GYM 1 EQUIPMENT LIST,,GYM 1 ZONE AIR NODE,1,1,0
   Controlled Zone Inlet,1,GYM 1,NODE 10,Undefined,N/A
   Controlled Zone Exhaust,1,GYM 1,NODE 9
 Controlled Zone,LOBBY_ENTRY,LOBBY_ENTRY EQUIPMENT LIST,,LOBBY_ENTRY ZONE AIR NODE,1,1,0
   Controlled Zone Inlet,1,LOBBY_ENTRY,NODE 58,Undefined,N/A
   Controlled Zone Exhaust,1,LOBBY_ENTRY,NODE 57
 Controlled Zone,LT_RETAIL_1,LT_RETAIL_1 EQUIPMENT LIST,,LT_RETAIL_1 ZONE AIR NODE,1,1,0
   Controlled Zone Inlet,1,LT_RETAIL_1,NODE 34,Undefined,N/A
   Controlled Zone Exhaust,1,LT_RETAIL_1,NODE 33
 Controlled Zone,LT_RETAIL_2,LT_RETAIL_2 EQUIPMENT LIST,,LT_RETAIL_2 ZONE AIR NODE,1,1,0
   Controlled Zone Inlet,1,LT_RETAIL_2,NODE 50,Undefined,N/A
   Controlled Zone Exhaust,1,LT_RETAIL_2,NODE 49
 Controlled Zone,LT_RETAIL_3,LT_RETAIL_3 EQUIPMENT LIST,,LT_RETAIL_3 ZONE AIR NODE,1,1,0
   Controlled Zone Inlet,1,LT_RETAIL_3,NODE 52,Undefined,N/A
   Controlled Zone Exhaust,1,LT_RETAIL_3,NODE 51
 Controlled Zone,LT_RETAIL_4,LT_RETAIL_4 EQUIPMENT LIST,,LT_RETAIL_4 ZONE AIR NODE,1,1,0
   Controlled Zone Inlet,1,LT_RETAIL_4,NODE 54,Undefined,N/A
   Controlled Zone Exhaust,1,LT_RETAIL_4,NODE 53
 Controlled Zone,MAIL_SHIPPING,MAIL_SHIPPING EQUIPMENT LIST,,MAIL_SHIPPING ZONE AIR NODE,1,1,0
   Controlled Zone Inlet,1,MAIL_SHIPPING,NODE 60,Undefined,N/A
   Controlled Zone Exhaust,1,MAIL_SHIPPING,NODE 59
 Controlled Zone,OFFICE 1,OFFICE 1 EQUIPMENT LIST,,OFFICE 1 ZONE AIR NODE,1,1,0
   Controlled Zone Inlet,1,OFFICE 1,NODE 6,Undefined,N/A
   Controlled Zone Exhaust,1,OFFICE 1,NODE 5
 Controlled Zone,STAIRWELL_1_2,STAIRWELL_1_2 EQUIPMENT LIST,,STAIRWELL_1_2 ZONE AIR NODE,1,1,0
   Controlled Zone Inlet,1,STAIRWELL_1_2,NODE 26,Undefined,N/A
   Controlled Zone Exhaust,1,STAIRWELL_1_2,NODE 25
 Controlled Zone,STAIRWELL_1_3,STAIRWELL_1_3 EQUIPMENT LIST,,STAIRWELL_1_3 ZONE AIR NODE,1,1,0
   Controlled Zone Inlet,1,STAIRWELL_1_3,NODE 30,Undefined,N/A
   Controlled Zone Exhaust,1,STAIRWELL_1_3,NODE 29
 Controlled Zone,STAIRWELL_1_4,STAIRWELL_1_4 EQUIPMENT LIST,,STAIRWELL_1_4 ZONE AIR NODE,1,1,0
   Controlled Zone Inlet,1,STAIRWELL_1_4,NODE 36,Undefined,N/A
   Controlled Zone Exhaust,1,STAIRWELL_1_4,NODE 35
 Controlled Zone,STAIRWELL_2_2,STAIRWELL_2_2 EQUIPMENT LIST,,STAIRWELL_2_2 ZONE AIR NODE,1,1,0
   Controlled Zone Inlet,1,STAIRWELL_2_2,NODE 38,Undefined,N/A
   Controlled Zone Exhaust,1,STAIRWELL_2_2,NODE 37
 Controlled Zone,STAIRWELL_2_3,STAIRWELL_2_3 EQUIPMENT LIST,,STAIRWELL_2_3 ZONE AIR NODE,1,1,0
   Controlled Zone Inlet,1,STAIRWELL_2_3,NODE 40,Undefined,N/A
   Controlled Zone Exhaust,1,STAIRWELL_2_3,NODE 39
 Controlled Zone,STAIRWELL_2_4,STAIRWELL_2_4 EQUIPMENT LIST,,STAIRWELL_2_4 ZONE AIR NODE,1,1,0
   Controlled Zone Inlet,1,STAIRWELL_2_4,NODE 46,Undefined,N/A
   Controlled Zone Exhaust,1,STAIRWELL_2_4,NODE 45
 Controlled Zone,STAIR_1,STAIR_1 EQUIPMENT LIST,,STAIR_1 ZONE AIR NODE,1,1,0
   Controlled Zone Inlet,1,STAIR_1,NODE 2,Undefined,N/A
   Controlled Zone Exhaust,1,STAIR_1,NODE 1
 Controlled Zone,STAIR_2,STAIR_2 EQUIPMENT LIST,,STAIR_2 ZONE AIR NODE,1,1,0
   Controlled Zone Inlet,1,STAIR_2,NODE 24,Undefined,N/A
   Controlled Zone Exhaust,1,STAIR_2,NODE 23
! ===============================================================
! <#Zone Equipment Lists>,<Number of Zone Equipment Lists>
 #Zone Equipment Lists,70
! <Zone Equipment List>,<Zone Equipment List Count>,<Zone Equipment List Name>,<Zone Name>,<Number of Components>
! <Zone Equipment Component>,<Component Count>,<Component Type>,<Component Name>,<Zone Name>,<Heating Priority>,<Cooling Priority>
 Zone Equipment List,1,0_BDRM_1_2 EQUIPMENT LIST,0_BDRM_1_2,1
   Zone Equipment Component,1,ZONEHVAC:IDEALLOADSAIRSYSTEM,ZONE HVAC IDEAL LOADS AIR SYSTEM 41,0_BDRM_1_2,1,1
 Zone Equipment List,2,0_BDRM_1_3 EQUIPMENT LIST,0_BDRM_1_3,1
   Zone Equipment Component,1,ZONEHVAC:IDEALLOADSAIRSYSTEM,ZONE HVAC IDEAL LOADS AIR SYSTEM 4,0_BDRM_1_3,1,1
 Zone Equipment List,3,0_BDRM_1_4 EQUIPMENT LIST,0_BDRM_1_4,1
   Zone Equipment Component,1,ZONEHVAC:IDEALLOADSAIRSYSTEM,ZONE HVAC IDEAL LOADS AIR SYSTEM 22,0_BDRM_1_4,1,1
 Zone Equipment List,4,0_BDRM_2_2 EQUIPMENT LIST,0_BDRM_2_2,1
   Zone Equipment Component,1,ZONEHVAC:IDEALLOADSAIRSYSTEM,ZONE HVAC IDEAL LOADS AIR SYSTEM 44,0_BDRM_2_2,1,1
 Zone Equipment List,5,0_BDRM_2_3 EQUIPMENT LIST,0_BDRM_2_3,1
   Zone Equipment Component,1,ZONEHVAC:IDEALLOADSAIRSYSTEM,ZONE HVAC IDEAL LOADS AIR SYSTEM 52,0_BDRM_2_3,1,1
 Zone Equipment List,6,0_BDRM_2_4 EQUIPMENT LIST,0_BDRM_2_4,1
   Zone Equipment Component,1,ZONEHVAC:IDEALLOADSAIRSYSTEM,ZONE HVAC IDEAL LOADS AIR SYSTEM 7,0_BDRM_2_4,1,1
 Zone Equipment List,7,0_BDRM_3_2 EQUIPMENT LIST,0_BDRM_3_2,1
   Zone Equipment Component,1,ZONEHVAC:IDEALLOADSAIRSYSTEM,ZONE HVAC IDEAL LOADS AIR SYSTEM 49,0_BDRM_3_2,1,1
 Zone Equipment List,8,0_BDRM_3_3 EQUIPMENT LIST,0_BDRM_3_3,1
   Zone Equipment Component,1,ZONEHVAC:IDEALLOADSAIRSYSTEM,ZONE HVAC IDEAL LOADS AIR SYSTEM 38,0_BDRM_3_3,1,1
 Zone Equipment List,9,0_BDRM_3_4 EQUIPMENT LIST,0_BDRM_3_4,1
   Zone Equipment Component,1,ZONEHVAC:IDEALLOADSAIRSYSTEM,ZONE HVAC IDEAL LOADS AIR SYSTEM 39,0_BDRM_3_4,1,1
 Zone Equipment List,10,0_BDRM_4_2 EQUIPMENT LIST,0_BDRM_4_2,1
   Zone Equipment Component,1,ZONEHVAC:IDEALLOADSAIRSYSTEM,ZONE HVAC IDEAL LOADS AIR SYSTEM 2,0_BDRM_4_2,1,1
 Zone Equipment List,11,0_BDRM_4_3 EQUIPMENT LIST,0_BDRM_4_3,1
   Zone Equipment Component,1,ZONEHVAC:IDEALLOADSAIRSYSTEM,ZONE HVAC IDEAL LOADS AIR SYSTEM 8,0_BDRM_4_3,1,1
 Zone Equipment List,12,0_BDRM_4_4 EQUIPMENT LIST,0_BDRM_4_4,1
   Zone Equipment Component,1,ZONEHVAC:IDEALLOADSAIRSYSTEM,ZONE HVAC IDEAL LOADS AIR SYSTEM 55,0_BDRM_4_4,1,1
 Zone Equipment List,13,1_BDRM_1_2 EQUIPMENT LIST,1_BDRM_1_2,1
   Zone Equipment Component,1,ZONEHVAC:IDEALLOADSAIRSYSTEM,ZONE HVAC IDEAL LOADS AIR SYSTEM 50,1_BDRM_1_2,1,1
 Zone Equipment List,14,1_BDRM_1_3 EQUIPMENT LIST,1_BDRM_1_3,1
   Zone Equipment Component,1,ZONEHVAC:IDEALLOADSAIRSYSTEM,ZONE HVAC IDEAL LOADS AIR SYSTEM 58,1_BDRM_1_3,1,1
 Zone Equipment List,15,1_BDRM_1_4 EQUIPMENT LIST,1_BDRM_1_4,1
   Zone Equipment Component,1,ZONEHVAC:IDEALLOADSAIRSYSTEM,ZONE HVAC IDEAL LOADS AIR SYSTEM 57,1_BDRM_1_4,1,1
 Zone Equipment List,16,1_BDRM_2_2 EQUIPMENT LIST,1_BDRM_2_2,1
   Zone Equipment Component,1,ZONEHVAC:IDEALLOADSAIRSYSTEM,ZONE HVAC IDEAL LOADS AIR SYSTEM 28,1_BDRM_2_2,1,1
 Zone Equipment List,17,1_BDRM_2_3 EQUIPMENT LIST,1_BDRM_2_3,1
   Zone Equipment Component,1,ZONEHVAC:IDEALLOADSAIRSYSTEM,ZONE HVAC IDEAL LOADS AIR SYSTEM 40,1_BDRM_2_3,1,1
 Zone Equipment List,18,1_BDRM_2_4 EQUIPMENT LIST,1_BDRM_2_4,1
   Zone Equipment Component,1,ZONEHVAC:IDEALLOADSAIRSYSTEM,ZONE HVAC IDEAL LOADS AIR SYSTEM 56,1_BDRM_2_4,1,1
 Zone Equipment List,19,1_BDRM_3_2 EQUIPMENT LIST,1_BDRM_3_2,1
   Zone Equipment Component,1,ZONEHVAC:IDEALLOADSAIRSYSTEM,ZONE HVAC IDEAL LOADS AIR SYSTEM 21,1_BDRM_3_2,1,1
 Zone Equipment List,20,1_BDRM_3_3 EQUIPMENT LIST,1_BDRM_3_3,1
   Zone Equipment Component,1,ZONEHVAC:IDEALLOADSAIRSYSTEM,ZONE HVAC IDEAL LOADS AIR SYSTEM 48,1_BDRM_3_3,1,1
 Zone Equipment List,21,1_BDRM_3_4 EQUIPMENT LIST,1_BDRM_3_4,1
   Zone Equipment Component,1,ZONEHVAC:IDEALLOADSAIRSYSTEM,ZONE HVAC IDEAL LOADS AIR SYSTEM 60,1_BDRM_3_4,1,1
 Zone Equipment List,22,1_BDRM_4_2 EQUIPMENT LIST,1_BDRM_4_2,1
   Zone Equipment Component,1,ZONEHVAC:IDEALLOADSAIRSYSTEM,ZONE HVAC IDEAL LOADS AIR SYSTEM 14,1_BDRM_4_2,1,1
 Zone Equipment List,23,1_BDRM_4_3 EQUIPMENT LIST,1_BDRM_4_3,1
   Zone Equipment Component,1,ZONEHVAC:IDEALLOADSAIRSYSTEM,ZONE HVAC IDEAL LOADS AIR SYSTEM 47,1_BDRM_4_3,1,1
 Zone Equipment List,24,1_BDRM_4_4 EQUIPMENT LIST,1_BDRM_4_4,1
   Zone Equipment Component,1,ZONEHVAC:IDEALLOADSAIRSYSTEM,ZONE HVAC IDEAL LOADS AIR SYSTEM 61,1_BDRM_4_4,1,1
 Zone Equipment List,25,1_BDRM_5_2 EQUIPMENT LIST,1_BDRM_5_2,1
   Zone Equipment Component,1,ZONEHVAC:IDEALLOADSAIRSYSTEM,ZONE HVAC IDEAL LOADS AIR SYSTEM 24,1_BDRM_5_2,1,1
 Zone Equipment List,26,1_BDRM_5_3 EQUIPMENT LIST,1_BDRM_5_3,1
   Zone Equipment Component,1,ZONEHVAC:IDEALLOADSAIRSYSTEM,ZONE HVAC IDEAL LOADS AIR SYSTEM 63,1_BDRM_5_3,1,1
 Zone Equipment List,27,1_BDRM_5_4 EQUIPMENT LIST,1_BDRM_5_4,1
   Zone Equipment Component,1,ZONEHVAC:IDEALLOADSAIRSYSTEM,ZONE HVAC IDEAL LOADS AIR SYSTEM 43,1_BDRM_5_4,1,1
[...]
 Non-Parent Node Connection,NODE 92,ZONEHVAC:IDEALLOADSAIRSYSTEM,ZONE HVAC IDEAL LOADS AIR SYSTEM 46,Outlet,1
 Non-Parent Node Connection,NODE 91,ZONEHVAC:IDEALLOADSAIRSYSTEM,ZONE HVAC IDEAL LOADS AIR SYSTEM 46,Inlet,1
 Non-Parent Node Connection,ZONE HVAC IDEAL LOADS AIR SYSTEM 46 OUTDOOR AIR INLET NODE,ZONEHVAC:IDEALLOADSAIRSYSTEM,ZONE HVAC IDEAL LOADS AIR SYSTEM 46,Outlet,1
 Non-Parent Node Connection,ZONE HVAC IDEAL LOADS AIR SYSTEM 46 OUTDOOR AIR INLET NODE,OUTDOORAIR:NODE,OutdoorAir:Node,OutdoorAir,35
 Non-Parent Node Connection,NODE 132,ZONEHVAC:IDEALLOADSAIRSYSTEM,ZONE HVAC IDEAL LOADS AIR SYSTEM 66,Outlet,1
 Non-Parent Node Connection,NODE 131,ZONEHVAC:IDEALLOADSAIRSYSTEM,ZONE HVAC IDEAL LOADS AIR SYSTEM 66,Inlet,1
 Non-Parent Node Connection,ZONE HVAC IDEAL LOADS AIR SYSTEM 66 OUTDOOR AIR INLET NODE,ZONEHVAC:IDEALLOADSAIRSYSTEM,ZONE HVAC IDEAL LOADS AIR SYSTEM 66,Outlet,1
 Non-Parent Node Connection,ZONE HVAC IDEAL LOADS AIR SYSTEM 66 OUTDOOR AIR INLET NODE,OUTDOORAIR:NODE,OutdoorAir:Node,OutdoorAir,36
 Non-Parent Node Connection,NODE 138,ZONEHVAC:IDEALLOADSAIRSYSTEM,ZONE HVAC IDEAL LOADS AIR SYSTEM 69,Outlet,1
 Non-Parent Node Connection,NODE 137,ZONEHVAC:IDEALLOADSAIRSYSTEM,ZONE HVAC IDEAL LOADS AIR SYSTEM 69,Inlet,1
 Non-Parent Node Connection,ZONE HVAC IDEAL LOADS AIR SYSTEM 69 OUTDOOR AIR INLET NODE,ZONEHVAC:IDEALLOADSAIRSYSTEM,ZONE HVAC IDEAL LOADS AIR SYSTEM 69,Outlet,1
 Non-Parent Node Connection,ZONE HVAC IDEAL LOADS AIR SYSTEM 69 OUTDOOR AIR INLET NODE,OUTDOORAIR:NODE,OutdoorAir:Node,OutdoorAir,37
 Non-Parent Node Connection,NODE 22,ZONEHVAC:IDEALLOADSAIRSYSTEM,ZONE HVAC IDEAL LOADS AIR SYSTEM 11,Outlet,1
 Non-Parent Node Connection,NODE 21,ZONEHVAC:IDEALLOADSAIRSYSTEM,ZONE HVAC IDEAL LOADS AIR SYSTEM 11,Inlet,1
 Non-Parent Node Connection,ZONE HVAC IDEAL LOADS AIR SYSTEM 11 OUTDOOR AIR INLET NODE,ZONEHVAC:IDEALLOADSAIRSYSTEM,ZONE HVAC IDEAL LOADS AIR SYSTEM 11,Outlet,1
 Non-Parent Node Connection,ZONE HVAC IDEAL LOADS AIR SYSTEM 11 OUTDOOR AIR INLET NODE,OUTDOORAIR:NODE,OutdoorAir:Node,OutdoorAir,38
 Non-Parent Node Connection,NODE 136,ZONEHVAC:IDEALLOADSAIRSYSTEM,ZONE HVAC IDEAL LOADS AIR SYSTEM 68,Outlet,1
 Non-Parent Node Connection,NODE 135,ZONEHVAC:IDEALLOADSAIRSYSTEM,ZONE HVAC IDEAL LOADS AIR SYSTEM 68,Inlet,1
 Non-Parent Node Connection,ZONE HVAC IDEAL LOADS AIR SYSTEM 68 OUTDOOR AIR INLET NODE,ZONEHVAC:IDEALLOADSAIRSYSTEM,ZONE HVAC IDEAL LOADS AIR SYSTEM 68,Outlet,1
 Non-Parent Node Connection,ZONE HVAC IDEAL LOADS AIR SYSTEM 68 OUTDOOR AIR INLET NODE,OUTDOORAIR:NODE,OutdoorAir:Node,OutdoorAir,39
 Non-Parent Node Connection,NODE 124,ZONEHVAC:IDEALLOADSAIRSYSTEM,ZONE HVAC IDEAL LOADS AIR SYSTEM 62,Outlet,1
 Non-Parent Node Connection,NODE 123,ZONEHVAC:IDEALLOADSAIRSYSTEM,ZONE HVAC IDEAL LOADS AIR SYSTEM 62,Inlet,1
 Non-Parent Node Connection,ZONE HVAC IDEAL LOADS AIR SYSTEM 62 OUTDOOR AIR INLET NODE,ZONEHVAC:IDEALLOADSAIRSYSTEM,ZONE HVAC IDEAL LOADS AIR SYSTEM 62,Outlet,1
 Non-Parent Node Connection,ZONE HVAC IDEAL LOADS AIR SYSTEM 62 OUTDOOR AIR INLET NODE,OUTDOORAIR:NODE,OutdoorAir:Node,OutdoorAir,40
 Non-Parent Node Connection,NODE 106,ZONEHVAC:IDEALLOADSAIRSYSTEM,ZONE HVAC IDEAL LOADS AIR SYSTEM 53,Outlet,1
 Non-Parent Node Connection,NODE 105,ZONEHVAC:IDEALLOADSAIRSYSTEM,ZONE HVAC IDEAL LOADS AIR SYSTEM 53,Inlet,1
 Non-Parent Node Connection,ZONE HVAC IDEAL LOADS AIR SYSTEM 53 OUTDOOR AIR INLET NODE,ZONEHVAC:IDEALLOADSAIRSYSTEM,ZONE HVAC IDEAL LOADS AIR SYSTEM 53,Outlet,1
 Non-Parent Node Connection,ZONE HVAC IDEAL LOADS AIR SYSTEM 53 OUTDOOR AIR INLET NODE,OUTDOORAIR:NODE,OutdoorAir:Node,OutdoorAir,41
 Non-Parent Node Connection,NODE 72,ZONEHVAC:IDEALLOADSAIRSYSTEM,ZONE HVAC IDEAL LOADS AIR SYSTEM 36,Outlet,1
 Non-Parent Node Connection,NODE 71,ZONEHVAC:IDEALLOADSAIRSYSTEM,ZONE HVAC IDEAL LOADS AIR SYSTEM 36,Inlet,1
 Non-Parent Node Connection,ZONE HVAC IDEAL LOADS AIR SYSTEM 36 OUTDOOR AIR INLET NODE,ZONEHVAC:IDEALLOADSAIRSYSTEM,ZONE HVAC IDEAL LOADS AIR SYSTEM 36,Outlet,1
 Non-Parent Node Connection,ZONE HVAC IDEAL LOADS AIR SYSTEM 36 OUTDOOR AIR INLET NODE,OUTDOORAIR:NODE,OutdoorAir:Node,OutdoorAir,42
 Non-Parent Node Connection,NODE 128,ZONEHVAC:IDEALLOADSAIRSYSTEM,ZONE HVAC IDEAL LOADS AIR SYSTEM 64,Outlet,1
 Non-Parent Node Connection,NODE 127,ZONEHVAC:IDEALLOADSAIRSYSTEM,ZONE HVAC IDEAL LOADS AIR SYSTEM 64,Inlet,1
 Non-Parent Node Connection,ZONE HVAC IDEAL LOADS AIR SYSTEM 64 OUTDOOR AIR INLET NODE,ZONEHVAC:IDEALLOADSAIRSYSTEM,ZONE HVAC IDEAL LOADS AIR SYSTEM 64,Outlet,1
 Non-Parent Node Connection,ZONE HVAC IDEAL LOADS AIR SYSTEM 64 OUTDOOR AIR INLET NODE,OUTDOORAIR:NODE,OutdoorAir:Node,OutdoorAir,43
 Non-Parent Node Connection,NODE 118,ZONEHVAC:IDEALLOADSAIRSYSTEM,ZONE HVAC IDEAL LOADS AIR SYSTEM 59,Outlet,1
 Non-Parent Node Connection,NODE 117,ZONEHVAC:IDEALLOADSAIRSYSTEM,ZONE HVAC IDEAL LOADS AIR SYSTEM 59,Inlet,1
 Non-Parent Node Connection,ZONE HVAC IDEAL LOADS AIR SYSTEM 59 OUTDOOR AIR INLET NODE,ZONEHVAC:IDEALLOADSAIRSYSTEM,ZONE HVAC IDEAL LOADS AIR SYSTEM 59,Outlet,1
 Non-Parent Node Connection,ZONE HVAC IDEAL LOADS AIR SYSTEM 59 OUTDOOR AIR INLET NODE,OUTDOORAIR:NODE,OutdoorAir:Node,OutdoorAir,44
 Non-Parent Node Connection,NODE 102,ZONEHVAC:IDEALLOADSAIRSYSTEM,ZONE HVAC IDEAL LOADS AIR SYSTEM 51,Outlet,1
 Non-Parent Node Connection,NODE 101,ZONEHVAC:IDEALLOADSAIRSYSTEM,ZONE HVAC IDEAL LOADS AIR SYSTEM 51,Inlet,1
 Non-Parent Node Connection,ZONE HVAC IDEAL LOADS AIR SYSTEM 51 OUTDOOR AIR INLET NODE,ZONEHVAC:IDEALLOADSAIRSYSTEM,ZONE HVAC IDEAL LOADS AIR SYSTEM 51,Outlet,1
 Non-Parent Node Connection,ZONE HVAC IDEAL LOADS AIR SYSTEM 51 OUTDOOR AIR INLET NODE,OUTDOORAIR:NODE,OutdoorAir:Node,OutdoorAir,45
 Non-Parent Node Connection,NODE 140,ZONEHVAC:IDEALLOADSAIRSYSTEM,ZONE HVAC IDEAL LOADS AIR SYSTEM 70,Outlet,1
 Non-Parent Node Connection,NODE 139,ZONEHVAC:IDEALLOADSAIRSYSTEM,ZONE HVAC IDEAL LOADS AIR SYSTEM 70,Inlet,1
 Non-Parent Node Connection,ZONE HVAC IDEAL LOADS AIR SYSTEM 70 OUTDOOR AIR INLET NODE,ZONEHVAC:IDEALLOADSAIRSYSTEM,ZONE HVAC IDEAL LOADS AIR SYSTEM 70,Outlet,1
 Non-Parent Node Connection,ZONE HVAC IDEAL LOADS AIR SYSTEM 70 OUTDOOR AIR INLET NODE,OUTDOORAIR:NODE,OutdoorAir:Node,OutdoorAir,46
 Non-Parent Node Connection,NODE 64,ZONEHVAC:IDEALLOADSAIRSYSTEM,ZONE HVAC IDEAL LOADS AIR SYSTEM 32,Outlet,1
 Non-Parent Node Connection,NODE 63,ZONEHVAC:IDEALLOADSAIRSYSTEM,ZONE HVAC IDEAL LOADS AIR SYSTEM 32,Inlet,1
 Non-Parent Node Connection,ZONE HVAC IDEAL LOADS AIR SYSTEM 32 OUTDOOR AIR INLET NODE,ZONEHVAC:IDEALLOADSAIRSYSTEM,ZONE HVAC IDEAL LOADS AIR SYSTEM 32,Outlet,1
 Non-Parent Node Connection,ZONE HVAC IDEAL LOADS AIR SYSTEM 32 OUTDOOR AIR INLET NODE,OUTDOORAIR:NODE,OutdoorAir:Node,OutdoorAir,47
 Non-Parent Node Connection,NODE 74,ZONEHVAC:IDEALLOADSAIRSYSTEM,ZONE HVAC IDEAL LOADS AIR SYSTEM 37,Outlet,1
 Non-Parent Node Connection,NODE 73,ZONEHVAC:IDEALLOADSAIRSYSTEM,ZONE HVAC IDEAL LOADS AIR SYSTEM 37,Inlet,1
 Non-Parent Node Connection,ZONE HVAC IDEAL LOADS AIR SYSTEM 37 OUTDOOR AIR INLET NODE,ZONEHVAC:IDEALLOADSAIRSYSTEM,ZONE HVAC IDEAL LOADS AIR SYSTEM 37,Outlet,1
 Non-Parent Node Connection,ZONE HVAC IDEAL LOADS AIR SYSTEM 37 OUTDOOR AIR INLET NODE,OUTDOORAIR:NODE,OutdoorAir:Node,OutdoorAir,48
 Non-Parent Node Connection,NODE 66,ZONEHVAC:IDEALLOADSAIRSYSTEM,ZONE HVAC IDEAL LOADS AIR SYSTEM 33,Outlet,1
 Non-Parent Node Connection,NODE 65,ZONEHVAC:IDEALLOADSAIRSYSTEM,ZONE HVAC IDEAL LOADS AIR SYSTEM 33,Inlet,1
 Non-Parent Node Connection,ZONE HVAC IDEAL LOADS AIR SYSTEM 33 OUTDOOR AIR INLET NODE,ZONEHVAC:IDEALLOADSAIRSYSTEM,ZONE HVAC IDEAL LOADS AIR SYSTEM 33,Outlet,1
 Non-Parent Node Connection,ZONE HVAC IDEAL LOADS AIR SYSTEM 33 OUTDOOR AIR INLET NODE,OUTDOORAIR:NODE,OutdoorAir:Node,OutdoorAir,49
 Non-Parent Node Connection,NODE 68,ZONEHVAC:IDEALLOADSAIRSYSTEM,ZONE HVAC IDEAL LOADS AIR SYSTEM 34,Outlet,1
 Non-Parent Node Connection,NODE 67,ZONEHVAC:IDEALLOADSAIRSYSTEM,ZONE HVAC IDEAL LOADS AIR SYSTEM 34,Inlet,1
 Non-Parent Node Connection,ZONE HVAC IDEAL LOADS AIR SYSTEM 34 OUTDOOR AIR INLET NODE,ZONEHVAC:IDEALLOADSAIRSYSTEM,ZONE HVAC IDEAL LOADS AIR SYSTEM 34,Outlet,1
 Non-Parent Node Connection,ZONE HVAC IDEAL LOADS AIR SYSTEM 34 OUTDOOR AIR INLET NODE,OUTDOORAIR:NODE,OutdoorAir:Node,OutdoorAir,50
 Non-Parent Node Connection,NODE 62,ZONEHVAC:IDEALLOADSAIRSYSTEM,ZONE HVAC IDEAL LOADS AIR SYSTEM 31,Outlet,1
 Non-Parent Node Connection,NODE 61,ZONEHVAC:IDEALLOADSAIRSYSTEM,ZONE HVAC IDEAL LOADS AIR SYSTEM 31,Inlet,1
 Non-Parent Node Connection,ZONE HVAC IDEAL LOADS AIR SYSTEM 31 OUTDOOR AIR INLET NODE,ZONEHVAC:IDEALLOADSAIRSYSTEM,ZONE HVAC IDEAL LOADS AIR SYSTEM 31,Outlet,1
 Non-Parent Node Connection,ZONE HVAC IDEAL LOADS AIR SYSTEM 31 OUTDOOR AIR INLET NODE,OUTDOORAIR:NODE,OutdoorAir:Node,OutdoorAir,51
 Non-Parent Node Connection,NODE 12,ZONEHVAC:IDEALLOADSAIRSYSTEM,ZONE HVAC IDEAL LOADS AIR SYSTEM 6,Outlet,1
 Non-Parent Node Connection,NODE 11,ZONEHVAC:IDEALLOADSAIRSYSTEM,ZONE HVAC IDEAL LOADS AIR SYSTEM 6,Inlet,1
 Non-Parent Node Connection,ZONE HVAC IDEAL LOADS AIR SYSTEM 6 OUTDOOR AIR INLET NODE,ZONEHVAC:IDEALLOADSAIRSYSTEM,ZONE HVAC IDEAL LOADS AIR SYSTEM 6,Outlet,1
 Non-Parent Node Connection,ZONE HVAC IDEAL LOADS AIR SYSTEM 6 OUTDOOR AIR INLET NODE,OUTDOORAIR:NODE,OutdoorAir:Node,OutdoorAir,52
 Non-Parent Node Connection,NODE 32,ZONEHVAC:IDEALLOADSAIRSYSTEM,ZONE HVAC IDEAL LOADS AIR SYSTEM 16,Outlet,1
 Non-Parent Node Connection,NODE 31,ZONEHVAC:IDEALLOADSAIRSYSTEM,ZONE HVAC IDEAL LOADS AIR SYSTEM 16,Inlet,1
 Non-Parent Node Connection,ZONE HVAC IDEAL LOADS AIR SYSTEM 16 OUTDOOR AIR INLET NODE,ZONEHVAC:IDEALLOADSAIRSYSTEM,ZONE HVAC IDEAL LOADS AIR SYSTEM 16,Outlet,1
 Non-Parent Node Connection,ZONE HVAC IDEAL LOADS AIR SYSTEM 16 OUTDOOR AIR INLET NODE,OUTDOORAIR:NODE,OutdoorAir:Node,OutdoorAir,53
 Non-Parent Node Connection,NODE 20,ZONEHVAC:IDEALLOADSAIRSYSTEM,ZONE HVAC IDEAL LOADS AIR SYSTEM 10,Outlet,1
 Non-Parent Node Connection,NODE 19,ZONEHVAC:IDEALLOADSAIRSYSTEM,ZONE HVAC IDEAL LOADS AIR SYSTEM 10,Inlet,1
 Non-Parent Node Connection,ZONE HVAC IDEAL LOADS AIR SYSTEM 10 OUTDOOR AIR INLET NODE,ZONEHVAC:IDEALLOADSAIRSYSTEM,ZONE HVAC IDEAL LOADS AIR SYSTEM 10,Outlet,1
 Non-Parent Node Connection,ZONE HVAC IDEAL LOADS AIR SYSTEM 10 OUTDOOR AIR INLET NODE,OUTDOORAIR:NODE,OutdoorAir:Node,OutdoorAir,54
 Non-Parent Node Connection,NODE 70,ZONEHVAC:IDEALLOADSAIRSYSTEM,ZONE HVAC IDEAL LOADS AIR SYSTEM 35,Outlet,1
 Non-Parent Node Connection,NODE 69,ZONEHVAC:IDEALLOADSAIRSYSTEM,ZONE HVAC IDEAL LOADS AIR SYSTEM 35,Inlet,1
 Non-Parent Node Connection,ZONE HVAC IDEAL LOADS AIR SYSTEM 35 OUTDOOR AIR INLET NODE,ZONEHVAC:IDEALLOADSAIRSYSTEM,ZONE HVAC IDEAL LOADS AIR SYSTEM 35,Outlet,1
 Non-Parent Node Connection,ZONE HVAC IDEAL LOADS AIR SYSTEM 35 OUTDOOR AIR INLET NODE,OUTDOORAIR:NODE,OutdoorAir:Node,OutdoorAir,55
 Non-Parent Node Connection,NODE 10,ZONEHVAC:IDEALLOADSAIRSYSTEM,ZONE HVAC IDEAL LOADS AIR SYSTEM 5,Outlet,1
 Non-Parent Node Connection,NODE 9,ZONEHVAC:IDEALLOADSAIRSYSTEM,ZONE HVAC IDEAL LOADS AIR SYSTEM 5,Inlet,1
 Non-Parent Node Connection,ZONE HVAC IDEAL LOADS AIR SYSTEM 5 OUTDOOR AIR INLET NODE,ZONEHVAC:IDEALLOADSAIRSYSTEM,ZONE HVAC IDEAL LOADS AIR SYSTEM 5,Outlet,1
 Non-Parent Node Connection,ZONE HVAC IDEAL LOADS AIR SYSTEM 5 OUTDOOR AIR INLET NODE,OUTDOORAIR:NODE,OutdoorAir:Node,OutdoorAir,56
 Non-Parent Node Connection,NODE 58,ZONEHVAC:IDEALLOADSAIRSYSTEM,ZONE HVAC IDEAL LOADS AIR SYSTEM 29,Outlet,1
 Non-Parent Node Connection,NODE 57,ZONEHVAC:IDEALLOADSAIRSYSTEM,ZONE HVAC IDEAL LOADS AIR SYSTEM 29,Inlet,1
 Non-Parent Node Connection,ZONE HVAC IDEAL LOADS AIR SYSTEM 29 OUTDOOR AIR INLET NODE,ZONEHVAC:IDEALLOADSAIRSYSTEM,ZONE HVAC IDEAL LOADS AIR SYSTEM 29,Outlet,1
 Non-Parent Node Connection,ZONE HVAC IDEAL LOADS AIR SYSTEM 29 OUTDOOR AIR INLET NODE,OUTDOORAIR:NODE,OutdoorAir:Node,OutdoorAir,57
 Non-Parent Node Connection,NODE 34,ZONEHVAC:IDEALLOADSAIRSYSTEM,ZONE HVAC IDEAL LOADS AIR SYSTEM 17,Outlet,1
 Non-Parent Node Connection,NODE 33,ZONEHVAC:IDEALLOADSAIRSYSTEM,ZONE HVAC IDEAL LOADS AIR SYSTEM 17,Inlet,1
 Non-Parent Node Connection,ZONE HVAC IDEAL LOADS AIR SYSTEM 17 OUTDOOR AIR INLET NODE,ZONEHVAC:IDEALLOADSAIRSYSTEM,ZONE HVAC IDEAL LOADS AIR SYSTEM 17,Outlet,1
 Non-Parent Node Connection,ZONE HVAC IDEAL LOADS AIR SYSTEM 17 OUTDOOR AIR INLET NODE,OUTDOORAIR:NODE,OutdoorAir:Node,OutdoorAir,58
 Non-Parent Node Connection,NODE 50,ZONEHVAC:IDEALLOADSAIRSYSTEM,ZONE HVAC IDEAL LOADS AIR SYSTEM 25,Outlet,1
 Non-Parent Node Connection,NODE 49,ZONEHVAC:IDEALLOADSAIRSYSTEM,ZONE HVAC IDEAL LOADS AIR SYSTEM 25,Inlet,1
 Non-Parent Node Connection,ZONE HVAC IDEAL LOADS AIR SYSTEM 25 OUTDOOR AIR INLET NODE,ZONEHVAC:IDEALLOADSAIRSYSTEM,ZONE HVAC IDEAL LOADS AIR SYSTEM 25,Outlet,1
 Non-Parent Node Connection,ZONE HVAC IDEAL LOADS AIR SYSTEM 25 OUTDOOR AIR INLET NODE,OUTDOORAIR:NODE,OutdoorAir:Node,OutdoorAir,59
 Non-Parent Node Connection,NODE 52,ZONEHVAC:IDEALLOADSAIRSYSTEM,ZONE HVAC IDEAL LOADS AIR SYSTEM 26,Outlet,1
 Non-Parent Node Connection,NODE 51,ZONEHVAC:IDEALLOADSAIRSYSTEM,ZONE HVAC IDEAL LOADS AIR SYSTEM 26,Inlet,1
 Non-Parent Node Connection,ZONE HVAC IDEAL LOADS AIR SYSTEM 26 OUTDOOR AIR INLET NODE,ZONEHVAC:IDEALLOADSAIRSYSTEM,ZONE HVAC IDEAL LOADS AIR SYSTEM 26,Outlet,1
 Non-Parent Node Connection,ZONE HVAC IDEAL LOADS AIR SYSTEM 26 OUTDOOR AIR INLET NODE,OUTDOORAIR:NODE,OutdoorAir:Node,OutdoorAir,60
 Non-Parent Node Connection,NODE 54,ZONEHVAC:IDEALLOADSAIRSYSTEM,ZONE HVAC IDEAL LOADS AIR SYSTEM 27,Outlet,1
 Non-Parent Node Connection,NODE 53,ZONEHVAC:IDEALLOADSAIRSYSTEM,ZONE HVAC IDEAL LOADS AIR SYSTEM 27,Inlet,1
 Non-Parent Node Connection,ZONE HVAC IDEAL LOADS AIR SYSTEM 27 OUTDOOR AIR INLET NODE,ZONEHVAC:IDEALLOADSAIRSYSTEM,ZONE HVAC IDEAL LOADS AIR SYSTEM 27,Outlet,1
 Non-Parent Node Connection,ZONE HVAC IDEAL LOADS AIR SYSTEM 27 OUTDOOR AIR INLET NODE,OUTDOORAIR:NODE,OutdoorAir:Node,OutdoorAir,61
 Non-Parent Node Connection,NODE 60,ZONEHVAC:IDEALLOADSAIRSYSTEM,ZONE HVAC IDEAL LOADS AIR SYSTEM 30,Outlet,1
 Non-Parent Node Connection,NODE 59,ZONEHVAC:IDEALLOADSAIRSYSTEM,ZONE HVAC IDEAL LOADS AIR SYSTEM 30,Inlet,1
 Non-Parent Node Connection,ZONE HVAC IDEAL LOADS AIR SYSTEM 30 OUTDOOR AIR INLET NODE,ZONEHVAC:IDEALLOADSAIRSYSTEM,ZONE HVAC IDEAL LOADS AIR SYSTEM 30,Outlet,1
 Non-Parent Node Connection,ZONE HVAC IDEAL LOADS AIR SYSTEM 30 OUTDOOR AIR INLET NODE,OUTDOORAIR:NODE,OutdoorAir:Node,OutdoorAir,62
 Non-Parent Node Connection,NODE 6,ZONEHVAC:IDEALLOADSAIRSYSTEM,ZONE HVAC IDEAL LOADS AIR SYSTEM 3,Outlet,1
 Non-Parent Node Connection,NODE 5,ZONEHVAC:IDEALLOADSAIRSYSTEM,ZONE HVAC IDEAL LOADS AIR SYSTEM 3,Inlet,1
 Non-Parent Node Connection,ZONE HVAC IDEAL LOADS AIR SYSTEM 3 OUTDOOR AIR INLET NODE,ZONEHVAC:IDEALLOADSAIRSYSTEM,ZONE HVAC IDEAL LOADS AIR SYSTEM 3,Outlet,1
 Non-Parent Node Connection,ZONE HVAC IDEAL LOADS AIR SYSTEM 3 OUTDOOR AIR INLET NODE,OUTDOORAIR:NODE,OutdoorAir:Node,OutdoorAir,63
 Non-Parent Node Connection,NODE 26,ZONEHVAC:IDEALLOADSAIRSYSTEM,ZONE HVAC IDEAL LOADS AIR SYSTEM 13,Outlet,1
 Non-Parent Node Connection,NODE 25,ZONEHVAC:IDEALLOADSAIRSYSTEM,ZONE HVAC IDEAL LOADS AIR SYSTEM 13,Inlet,1
 Non-Parent Node Connection,ZONE HVAC IDEAL LOADS AIR SYSTEM 13 OUTDOOR AIR INLET NODE,ZONEHVAC:IDEALLOADSAIRSYSTEM,ZONE HVAC IDEAL LOADS AIR SYSTEM 13,Outlet,1
 Non-Parent Node Connection,ZONE HVAC IDEAL LOADS AIR SYSTEM 13 OUTDOOR AIR INLET NODE,OUTDOORAIR:NODE,OutdoorAir:Node,OutdoorAir,64
 Non-Parent Node Connection,NODE 30,ZONEHVAC:IDEALLOADSAIRSYSTEM,ZONE HVAC IDEAL LOADS AIR SYSTEM 15,Outlet,1
 Non-Parent Node Connection,NODE 29,ZONEHVAC:IDEALLOADSAIRSYSTEM,ZONE HVAC IDEAL LOADS AIR SYSTEM 15,Inlet,1
 Non-Parent Node Connection,ZONE HVAC IDEAL LOADS AIR SYSTEM 15 OUTDOOR AIR INLET NODE,ZONEHVAC:IDEALLOADSAIRSYSTEM,ZONE HVAC IDEAL LOADS AIR SYSTEM 15,Outlet,1
 Non-Parent Node Connection,ZONE HVAC IDEAL LOADS AIR SYSTEM 15 OUTDOOR AIR INLET NODE,OUTDOORAIR:NODE,OutdoorAir:Node,OutdoorAir,65
 Non-Parent Node Connection,NODE 36,ZONEHVAC:IDEALLOADSAIRSYSTEM,ZONE HVAC IDEAL LOADS AIR SYSTEM 18,Outlet,1
 Non-Parent Node Connection,NODE 35,ZONEHVAC:IDEALLOADSAIRSYSTEM,ZONE HVAC IDEAL LOADS AIR SYSTEM 18,Inlet,1
 Non-Parent Node Connection,ZONE HVAC IDEAL LOADS AIR SYSTEM 18 OUTDOOR AIR INLET NODE,ZONEHVAC:IDEALLOADSAIRSYSTEM,ZONE HVAC IDEAL LOADS AIR SYSTEM 18,Outlet,1
 Non-Parent Node Connection,ZONE HVAC IDEAL LOADS AIR SYSTEM 18 OUTDOOR AIR INLET NODE,OUTDOORAIR:NODE,OutdoorAir:Node,OutdoorAir,66
 Non-Parent Node Connection,NODE 38,ZONEHVAC:IDEALLOADSAIRSYSTEM,ZONE HVAC IDEAL LOADS AIR SYSTEM 19,Outlet,1
 Non-Parent Node Connection,NODE 37,ZONEHVAC:IDEALLOADSAIRSYSTEM,ZONE HVAC IDEAL LOADS AIR SYSTEM 19,Inlet,1
 Non-Parent Node Connection,ZONE HVAC IDEAL LOADS AIR SYSTEM 19 OUTDOOR AIR INLET NODE,ZONEHVAC:IDEALLOADSAIRSYSTEM,ZONE HVAC IDEAL LOADS AIR SYSTEM 19,Outlet,1
 Non-Parent Node Connection,ZONE HVAC IDEAL LOADS AIR SYSTEM 19 OUTDOOR AIR INLET NODE,OUTDOORAIR:NODE,OutdoorAir:Node,OutdoorAir,67
 Non-Parent Node Connection,NODE 40,ZONEHVAC:IDEALLOADSAIRSYSTEM,ZONE HVAC IDEAL LOADS AIR SYSTEM 20,Outlet,1
 Non-Parent Node Connection,NODE 39,ZONEHVAC:IDEALLOADSAIRSYSTEM,ZONE HVAC IDEAL LOADS AIR SYSTEM 20,Inlet,1
 Non-Parent Node Connection,ZONE HVAC IDEAL LOADS AIR SYSTEM 20 OUTDOOR AIR INLET NODE,ZONEHVAC:IDEALLOADSAIRSYSTEM,ZONE HVAC IDEAL LOADS AIR SYSTEM 20,Outlet,1
 Non-Parent Node Connection,ZONE HVAC IDEAL LOADS AIR SYSTEM 20 OUTDOOR AIR INLET NODE,OUTDOORAIR:NODE,OutdoorAir:Node,OutdoorAir,68
 Non-Parent Node Connection,NODE 46,ZONEHVAC:IDEALLOADSAIRSYSTEM,ZONE HVAC IDEAL LOADS AIR SYSTEM 23,Outlet,1
 Non-Parent Node Connection,NODE 45,ZONEHVAC:IDEALLOADSAIRSYSTEM,ZONE HVAC IDEAL LOADS AIR SYSTEM 23,Inlet,1
 Non-Parent Node Connection,ZONE HVAC IDEAL LOADS AIR SYSTEM 23 OUTDOOR AIR INLET NODE,ZONEHVAC:IDEALLOADSAIRSYSTEM,ZONE HVAC IDEAL LOADS AIR SYSTEM 23,Outlet,1
 Non-Parent Node Connection,ZONE HVAC IDEAL LOADS AIR SYSTEM 23 OUTDOOR AIR INLET NODE,OUTDOORAIR:NODE,OutdoorAir:Node,OutdoorAir,69
 Non-Parent Node Connection,NODE 2,ZONEHVAC:IDEALLOADSAIRSYSTEM,ZONE HVAC IDEAL LOADS AIR SYSTEM 1,Outlet,1
 Non-Parent Node Connection,NODE 1,ZONEHVAC:IDEALLOADSAIRSYSTEM,ZONE HVAC IDEAL LOADS AIR SYSTEM 1,Inlet,1
 Non-Parent Node Connection,ZONE HVAC IDEAL LOADS AIR SYSTEM 1 OUTDOOR AIR INLET NODE,ZONEHVAC:IDEALLOADSAIRSYSTEM,ZONE HVAC IDEAL LOADS AIR SYSTEM 1,Outlet,1
 Non-Parent Node Connection,ZONE HVAC IDEAL LOADS AIR SYSTEM 1 OUTDOOR AIR INLET NODE,OUTDOORAIR:NODE,OutdoorAir:Node,OutdoorAir,70
 Non-Parent Node Connection,NODE 24,ZONEHVAC:IDEALLOADSAIRSYSTEM,ZONE HVAC IDEAL LOADS AIR SYSTEM 12,Outlet,1
 Non-Parent Node Connection,NODE 23,ZONEHVAC:IDEALLOADSAIRSYSTEM,ZONE HVAC IDEAL LOADS AIR SYSTEM 12,Inlet,1
 Non-Parent Node Connection,ZONE HVAC IDEAL LOADS AIR SYSTEM 12 OUTDOOR AIR INLET NODE,ZONEHVAC:IDEALLOADSAIRSYSTEM,ZONE HVAC IDEAL LOADS AIR SYSTEM 12,Outlet,1
 Non-Parent Node Connection,ZONE HVAC IDEAL LOADS AIR SYSTEM 12 OUTDOOR AIR INLET NODE,OUTDOORAIR:NODE,OutdoorAir:Node,OutdoorAir,71
 Non-Parent Node Connection,SERVICE HOT WATER LOOP SUPPLY INLET NODE,PUMP:VARIABLESPEED,SERVICE WATER HEATING PUMP,Inlet,1
 Non-Parent Node Connection,SERVICE WATER HEATING PUMP OUTLET WATER NODE,PUMP:VARIABLESPEED,SERVICE WATER HEATING PUMP,Outlet,1
 Non-Parent Node Connection,SERVICE PREHEAT WATER LOOP SUPPLY INLET NODE,PUMP:VARIABLESPEED,SERVICE PREHEAT WATER PUMP,Inlet,1
 Non-Parent Node Connection,SERVICE PREHEAT WATER PUMP OUTLET WATER NODE,PUMP:VARIABLESPEED,SERVICE PREHEAT WATER PUMP,Outlet,1
 Non-Parent Node Connection,WASTE WATER HEAT PUMP LOOP SUPPLY INLET NODE,PUMP:VARIABLESPEED,WASTE WATER HEAT PUMP PUMP,Inlet,1
 Non-Parent Node Connection,WASTE WATER HEAT PUMP PUMP OUTLET WATER NODE,PUMP:VARIABLESPEED,WASTE WATER HEAT PUMP PUMP,Outlet,1
 Non-Parent Node Connection,WW-WATER CONNECTIONS LOOP SUPPLY INLET NODE,PUMP:VARIABLESPEED,WASTE WATER PUMP,Inlet,1
 Non-Parent Node Connection,WASTE WATER PUMP OUTLET WATER NODE,PUMP:VARIABLESPEED,WASTE WATER PUMP,Outlet,1
