Program Version,EnergyPlus, Version 9.3.0-baff08990c, YMD=2021.05.19 07:55
! This file shows details about the branches, nodes, and other
! elements of the flow connections.
! This file is intended for use in "debugging" potential problems
! that may also be detected by the program, but may be more easily
! identified by "eye".
! This file is also intended to support software which draws a
! schematic diagram of the HVAC system.
! ===============================================================
! #Nodes,<Number of Unique Nodes>
 #Nodes,1724
! <Node>,<NodeNumber>,<Node Name>,<Node Fluid Type>,<# Times Node Referenced After Definition>
 Node,1,0_BDRM_1_2 ERV OUTLET AIR NODE,Air,3
 Node,2,0_BDRM_1_2 DIRECT AIR OUTLET AIR NODE,Air,3
 Node,3,0_BDRM_1_2 ERV INLET AIR NODE,Air,3
 Node,4,0_BDRM_1_2 RETURN AIR NODE,Air,2
 Node,5,0_BDRM_1_3 ERV OUTLET AIR NODE,Air,3
 Node,6,0_BDRM_1_3 DIRECT AIR OUTLET AIR NODE,Air,3
 Node,7,0_BDRM_1_3 ERV INLET AIR NODE,Air,3
 Node,8,0_BDRM_1_3 RETURN AIR NODE,Air,2
 Node,9,0_BDRM_1_4 ERV OUTLET AIR NODE,Air,3
 Node,10,0_BDRM_1_4 DIRECT AIR OUTLET AIR NODE,Air,3
 Node,11,0_BDRM_1_4 ERV INLET AIR NODE,Air,3
 Node,12,0_BDRM_1_4 RETURN AIR NODE,Air,2
 Node,13,0_BDRM_2_2 ERV OUTLET AIR NODE,Air,3
 Node,14,0_BDRM_2_2 DIRECT AIR OUTLET AIR NODE,Air,3
 Node,15,0_BDRM_2_2 ERV INLET AIR NODE,Air,3
 Node,16,0_BDRM_2_2 RETURN AIR NODE,Air,2
 Node,17,0_BDRM_2_3 ERV OUTLET AIR NODE,Air,3
 Node,18,0_BDRM_2_3 DIRECT AIR OUTLET AIR NODE,Air,3
 Node,19,0_BDRM_2_3 ERV INLET AIR NODE,Air,3
 Node,20,0_BDRM_2_3 RETURN AIR NODE,Air,2
 Node,21,0_BDRM_2_4 ERV OUTLET AIR NODE,Air,3
 Node,22,0_BDRM_2_4 DIRECT AIR OUTLET AIR NODE,Air,3
 Node,23,0_BDRM_2_4 ERV INLET AIR NODE,Air,3
 Node,24,0_BDRM_2_4 RETURN AIR NODE,Air,2
 Node,25,0_BDRM_3_2 ERV OUTLET AIR NODE,Air,3
 Node,26,0_BDRM_3_2 DIRECT AIR OUTLET AIR NODE,Air,3
 Node,27,0_BDRM_3_2 ERV INLET AIR NODE,Air,3
 Node,28,0_BDRM_3_2 RETURN AIR NODE,Air,2
 Node,29,0_BDRM_3_3 ERV OUTLET AIR NODE,Air,3
 Node,30,0_BDRM_3_3 DIRECT AIR OUTLET AIR NODE,Air,3
 Node,31,0_BDRM_3_3 ERV INLET AIR NODE,Air,3
 Node,32,0_BDRM_3_3 RETURN AIR NODE,Air,2
 Node,33,0_BDRM_3_4 ERV OUTLET AIR NODE,Air,3
 Node,34,0_BDRM_3_4 DIRECT AIR OUTLET AIR NODE,Air,3
 Node,35,0_BDRM_3_4 ERV INLET AIR NODE,Air,3
 Node,36,0_BDRM_3_4 RETURN AIR NODE,Air,2
 Node,37,0_BDRM_4_2 ERV OUTLET AIR NODE,Air,3
 Node,38,0_BDRM_4_2 DIRECT AIR OUTLET AIR NODE,Air,3
 Node,39,0_BDRM_4_2 ERV INLET AIR NODE,Air,3
 Node,40,0_BDRM_4_2 RETURN AIR NODE,Air,2
 Node,41,0_BDRM_4_3 ERV OUTLET AIR NODE,Air,3
 Node,42,0_BDRM_4_3 DIRECT AIR OUTLET AIR NODE,Air,3
 Node,43,0_BDRM_4_3 ERV INLET AIR NODE,Air,3
 Node,44,0_BDRM_4_3 RETURN AIR NODE,Air,2
 Node,45,0_BDRM_4_4 ERV OUTLET AIR NODE,Air,3
 Node,46,0_BDRM_4_4 DIRECT AIR OUTLET AIR NODE,Air,3
 Node,47,0_BDRM_4_4 ERV INLET AIR NODE,Air,3
 Node,48,0_BDRM_4_4 RETURN AIR NODE,Air,2
 Node,49,1_BDRM_1_2 ERV OUTLET AIR NODE,Air,3
 Node,50,1_BDRM_1_2 DIRECT AIR OUTLET AIR NODE,Air,3
 Node,51,1_BDRM_1_2 ERV INLET AIR NODE,Air,3
 Node,52,1_BDRM_1_2 RETURN AIR NODE,Air,2
 Node,53,1_BDRM_1_3 ERV OUTLET AIR NODE,Air,3
 Node,54,1_BDRM_1_3 DIRECT AIR OUTLET AIR NODE,Air,3
 Node,55,1_BDRM_1_3 ERV INLET AIR NODE,Air,3
 Node,56,1_BDRM_1_3 RETURN AIR NODE,Air,2
 Node,57,1_BDRM_1_4 ERV OUTLET AIR NODE,Air,3
 Node,58,1_BDRM_1_4 DIRECT AIR OUTLET AIR NODE,Air,3
 Node,59,1_BDRM_1_4 ERV INLET AIR NODE,Air,3
 Node,60,1_BDRM_1_4 RETURN AIR NODE,Air,2
 Node,61,1_BDRM_2_2 ERV OUTLET AIR NODE,Air,3
 Node,62,1_BDRM_2_2 DIRECT AIR OUTLET AIR NODE,Air,3
 Node,63,1_BDRM_2_2 ERV INLET AIR NODE,Air,3
 Node,64,1_BDRM_2_2 RETURN AIR NODE,Air,2
 Node,65,1_BDRM_2_3 ERV OUTLET AIR NODE,Air,3
 Node,66,1_BDRM_2_3 DIRECT AIR OUTLET AIR NODE,Air,3
 Node,67,1_BDRM_2_3 ERV INLET AIR NODE,Air,3
 Node,68,1_BDRM_2_3 RETURN AIR NODE,Air,2
 Node,69,1_BDRM_2_4 ERV OUTLET AIR NODE,Air,3
 Node,70,1_BDRM_2_4 DIRECT AIR OUTLET AIR NODE,Air,3
 Node,71,1_BDRM_2_4 ERV INLET AIR NODE,Air,3
 Node,72,1_BDRM_2_4 RETURN AIR NODE,Air,2
 Node,73,1_BDRM_3_2 ERV OUTLET AIR NODE,Air,3
 Node,74,1_BDRM_3_2 DIRECT AIR OUTLET AIR NODE,Air,3
 Node,75,1_BDRM_3_2 ERV INLET AIR NODE,Air,3
 Node,76,1_BDRM_3_2 RETURN AIR NODE,Air,2
 Node,77,1_BDRM_3_3 ERV OUTLET AIR NODE,Air,3
 Node,78,1_BDRM_3_3 DIRECT AIR OUTLET AIR NODE,Air,3
 Node,79,1_BDRM_3_3 ERV INLET AIR NODE,Air,3
 Node,80,1_BDRM_3_3 RETURN AIR NODE,Air,2
 Node,81,1_BDRM_3_4 ERV OUTLET AIR NODE,Air,3
 Node,82,1_BDRM_3_4 DIRECT AIR OUTLET AIR NODE,Air,3
 Node,83,1_BDRM_3_4 ERV INLET AIR NODE,Air,3
 Node,84,1_BDRM_3_4 RETURN AIR NODE,Air,2
 Node,85,1_BDRM_4_2 ERV OUTLET AIR NODE,Air,3
 Node,86,1_BDRM_4_2 DIRECT AIR OUTLET AIR NODE,Air,3
 Node,87,1_BDRM_4_2 ERV INLET AIR NODE,Air,3
 Node,88,1_BDRM_4_2 RETURN AIR NODE,Air,2
 Node,89,1_BDRM_4_3 ERV OUTLET AIR NODE,Air,3
 Node,90,1_BDRM_4_3 DIRECT AIR OUTLET AIR NODE,Air,3
 Node,91,1_BDRM_4_3 ERV INLET AIR NODE,Air,3
 Node,92,1_BDRM_4_3 RETURN AIR NODE,Air,2
 Node,93,1_BDRM_4_4 ERV OUTLET AIR NODE,Air,3
 Node,94,1_BDRM_4_4 DIRECT AIR OUTLET AIR NODE,Air,3
 Node,95,1_BDRM_4_4 ERV INLET AIR NODE,Air,3
 Node,96,1_BDRM_4_4 RETURN AIR NODE,Air,2
 Node,97,1_BDRM_5_2 ERV OUTLET AIR NODE,Air,3
 Node,98,1_BDRM_5_2 DIRECT AIR OUTLET AIR NODE,Air,3
 Node,99,1_BDRM_5_2 ERV INLET AIR NODE,Air,3
 Node,100,1_BDRM_5_2 RETURN AIR NODE,Air,2
 Node,101,1_BDRM_5_3 ERV OUTLET AIR NODE,Air,3
 Node,102,1_BDRM_5_3 DIRECT AIR OUTLET AIR NODE,Air,3
 Node,103,1_BDRM_5_3 ERV INLET AIR NODE,Air,3
 Node,104,1_BDRM_5_3 RETURN AIR NODE,Air,2
 Node,105,1_BDRM_5_4 ERV OUTLET AIR NODE,Air,3
 Node,106,1_BDRM_5_4 DIRECT AIR OUTLET AIR NODE,Air,3
 Node,107,1_BDRM_5_4 ERV INLET AIR NODE,Air,3
 Node,108,1_BDRM_5_4 RETURN AIR NODE,Air,2
 Node,109,1_BDRM_6_2 ERV OUTLET AIR NODE,Air,3
 Node,110,1_BDRM_6_2 DIRECT AIR OUTLET AIR NODE,Air,3
 Node,111,1_BDRM_6_2 ERV INLET AIR NODE,Air,3
 Node,112,1_BDRM_6_2 RETURN AIR NODE,Air,2
 Node,113,1_BDRM_6_3 ERV OUTLET AIR NODE,Air,3
 Node,114,1_BDRM_6_3 DIRECT AIR OUTLET AIR NODE,Air,3
 Node,115,1_BDRM_6_3 ERV INLET AIR NODE,Air,3
 Node,116,1_BDRM_6_3 RETURN AIR NODE,Air,2
 Node,117,1_BDRM_6_4 ERV OUTLET AIR NODE,Air,3
 Node,118,1_BDRM_6_4 DIRECT AIR OUTLET AIR NODE,Air,3
 Node,119,1_BDRM_6_4 ERV INLET AIR NODE,Air,3
 Node,120,1_BDRM_6_4 RETURN AIR NODE,Air,2
 Node,121,1_BDRM_7_2 ERV OUTLET AIR NODE,Air,3
 Node,122,1_BDRM_7_2 DIRECT AIR OUTLET AIR NODE,Air,3
 Node,123,1_BDRM_7_2 ERV INLET AIR NODE,Air,3
 Node,124,1_BDRM_7_2 RETURN AIR NODE,Air,2
 Node,125,1_BDRM_7_3 ERV OUTLET AIR NODE,Air,3
 Node,126,1_BDRM_7_3 DIRECT AIR OUTLET AIR NODE,Air,3
 Node,127,1_BDRM_7_3 ERV INLET AIR NODE,Air,3
 Node,128,1_BDRM_7_3 RETURN AIR NODE,Air,2
 Node,129,1_BDRM_7_4 ERV OUTLET AIR NODE,Air,3
 Node,130,1_BDRM_7_4 DIRECT AIR OUTLET AIR NODE,Air,3
 Node,131,1_BDRM_7_4 ERV INLET AIR NODE,Air,3
 Node,132,1_BDRM_7_4 RETURN AIR NODE,Air,2
 Node,133,2_BDRM_1_2 ERV OUTLET AIR NODE,Air,3
 Node,134,2_BDRM_1_2 DIRECT AIR OUTLET AIR NODE,Air,3
 Node,135,2_BDRM_1_2 ERV INLET AIR NODE,Air,3
 Node,136,2_BDRM_1_2 RETURN AIR NODE,Air,2
 Node,137,2_BDRM_1_3 ERV OUTLET AIR NODE,Air,3
 Node,138,2_BDRM_1_3 DIRECT AIR OUTLET AIR NODE,Air,3
 Node,139,2_BDRM_1_3 ERV INLET AIR NODE,Air,3
 Node,140,2_BDRM_1_3 RETURN AIR NODE,Air,2
 Node,141,2_BDRM_1_4 ERV OUTLET AIR NODE,Air,3
 Node,142,2_BDRM_1_4 DIRECT AIR OUTLET AIR NODE,Air,3
 Node,143,2_BDRM_1_4 ERV INLET AIR NODE,Air,3
 Node,144,2_BDRM_1_4 RETURN AIR NODE,Air,2
 Node,145,2_BDRM_2_2 ERV OUTLET AIR NODE,Air,3
 Node,146,2_BDRM_2_2 DIRECT AIR OUTLET AIR NODE,Air,3
 Node,147,2_BDRM_2_2 ERV INLET AIR NODE,Air,3
 Node,148,2_BDRM_2_2 RETURN AIR NODE,Air,2
 Node,149,2_BDRM_2_3 ERV OUTLET AIR NODE,Air,3
 Node,150,2_BDRM_2_3 DIRECT AIR OUTLET AIR NODE,Air,3
 Node,151,2_BDRM_2_3 ERV INLET AIR NODE,Air,3
 Node,152,2_BDRM_2_3 RETURN AIR NODE,Air,2
 Node,153,2_BDRM_2_4 ERV OUTLET AIR NODE,Air,3
 Node,154,2_BDRM_2_4 DIRECT AIR OUTLET AIR NODE,Air,3
 Node,155,2_BDRM_2_4 ERV INLET AIR NODE,Air,3
 Node,156,2_BDRM_2_4 RETURN AIR NODE,Air,2
 Node,157,2_BDRM_3_2 ERV OUTLET AIR NODE,Air,3
 Node,158,2_BDRM_3_2 DIRECT AIR OUTLET AIR NODE,Air,3
 Node,159,2_BDRM_3_2 ERV INLET AIR NODE,Air,3
 Node,160,2_BDRM_3_2 RETURN AIR NODE,Air,2
 Node,161,2_BDRM_3_3 ERV OUTLET AIR NODE,Air,3
 Node,162,2_BDRM_3_3 DIRECT AIR OUTLET AIR NODE,Air,3
 Node,163,2_BDRM_3_3 ERV INLET AIR NODE,Air,3
 Node,164,2_BDRM_3_3 RETURN AIR NODE,Air,2
 Node,165,2_BDRM_3_4 ERV OUTLET AIR NODE,Air,3
 Node,166,2_BDRM_3_4 DIRECT AIR OUTLET AIR NODE,Air,3
 Node,167,2_BDRM_3_4 ERV INLET AIR NODE,Air,3
 Node,168,2_BDRM_3_4 RETURN AIR NODE,Air,2
 Node,169,3_BDRM_1_3 ERV OUTLET AIR NODE,Air,3
 Node,170,3_BDRM_1_3 DIRECT AIR OUTLET AIR NODE,Air,3
 Node,171,3_BDRM_1_3 ERV INLET AIR NODE,Air,3
 Node,172,3_BDRM_1_3 RETURN AIR NODE,Air,2
 Node,173,3_BDRM_1_4 ERV OUTLET AIR NODE,Air,3
 Node,174,3_BDRM_1_4 DIRECT AIR OUTLET AIR NODE,Air,3
 Node,175,3_BDRM_1_4 ERV INLET AIR NODE,Air,3
 Node,176,3_BDRM_1_4 RETURN AIR NODE,Air,2
 Node,177,3_BDRM_2_2 ERV OUTLET AIR NODE,Air,3
 Node,178,3_BDRM_2_2 DIRECT AIR OUTLET AIR NODE,Air,3
 Node,179,3_BDRM_2_2 ERV INLET AIR NODE,Air,3
 Node,180,3_BDRM_2_2 RETURN AIR NODE,Air,2
 Node,181,BATHRM_1 ERV OUTLET AIR NODE,Air,3
 Node,182,BATHRM_1 DIRECT AIR OUTLET AIR NODE,Air,3
 Node,183,BATHRM_1 ERV INLET AIR NODE,Air,3
 Node,184,BATHRM_1 RETURN AIR NODE,Air,2
 Node,185,BATHRM_2 ERV OUTLET AIR NODE,Air,3
 Node,186,BATHRM_2 DIRECT AIR OUTLET AIR NODE,Air,3
 Node,187,BATHRM_2 ERV INLET AIR NODE,Air,3
 Node,188,BATHRM_2 RETURN AIR NODE,Air,2
 Node,189,COFFEE_SHOP ERV OUTLET AIR NODE,Air,3
 Node,190,COFFEE_SHOP DIRECT AIR OUTLET AIR NODE,Air,3
 Node,191,COFFEE_SHOP ERV INLET AIR NODE,Air,3
 Node,192,COFFEE_SHOP RETURN AIR NODE,Air,2
 Node,193,COMMUNITY_RM ERV OUTLET AIR NODE,Air,3
 Node,194,COMMUNITY_RM DIRECT AIR OUTLET AIR NODE,Air,3
 Node,195,COMMUNITY_RM ERV INLET AIR NODE,Air,3
 Node,196,COMMUNITY_RM RETURN AIR NODE,Air,2
 Node,197,CORRIDOR ERV OUTLET AIR NODE,Air,3
 Node,198,CORRIDOR DIRECT AIR OUTLET AIR NODE,Air,3
 Node,199,CORRIDOR ERV INLET AIR NODE,Air,3
 Node,200,CORRIDOR RETURN AIR NODE,Air,2
 Node,201,CORRIDOR_2 ERV OUTLET AIR NODE,Air,3
 Node,202,CORRIDOR_2 DIRECT AIR OUTLET AIR NODE,Air,3
 Node,203,CORRIDOR_2 ERV INLET AIR NODE,Air,3
 Node,204,CORRIDOR_2 RETURN AIR NODE,Air,2
 Node,205,CORRIDOR_3 ERV OUTLET AIR NODE,Air,3
 Node,206,CORRIDOR_3 DIRECT AIR OUTLET AIR NODE,Air,3
 Node,207,CORRIDOR_3 ERV INLET AIR NODE,Air,3
 Node,208,CORRIDOR_3 RETURN AIR NODE,Air,2
 Node,209,CORRIDOR_4 ERV OUTLET AIR NODE,Air,3
 Node,210,CORRIDOR_4 DIRECT AIR OUTLET AIR NODE,Air,3
 Node,211,CORRIDOR_4 ERV INLET AIR NODE,Air,3
 Node,212,CORRIDOR_4 RETURN AIR NODE,Air,2
 Node,213,GYM 1 ERV OUTLET AIR NODE,Air,3
 Node,214,GYM 1 DIRECT AIR OUTLET AIR NODE,Air,3
 Node,215,GYM 1 ERV INLET AIR NODE,Air,3
 Node,216,GYM 1 RETURN AIR NODE,Air,2
 Node,217,LT_RETAIL_1 ERV OUTLET AIR NODE,Air,3
 Node,218,LT_RETAIL_1 DIRECT AIR OUTLET AIR NODE,Air,3
 Node,219,LT_RETAIL_1 ERV INLET AIR NODE,Air,3
 Node,220,LT_RETAIL_1 RETURN AIR NODE,Air,2
 Node,221,LT_RETAIL_2 ERV OUTLET AIR NODE,Air,3
 Node,222,LT_RETAIL_2 DIRECT AIR OUTLET AIR NODE,Air,3
 Node,223,LT_RETAIL_2 ERV INLET AIR NODE,Air,3
 Node,224,LT_RETAIL_2 RETURN AIR NODE,Air,2
 Node,225,LT_RETAIL_3 ERV OUTLET AIR NODE,Air,3
 Node,226,LT_RETAIL_3 DIRECT AIR OUTLET AIR NODE,Air,3
 Node,227,LT_RETAIL_3 ERV INLET AIR NODE,Air,3
 Node,228,LT_RETAIL_3 RETURN AIR NODE,Air,2
 Node,229,LT_RETAIL_4 ERV OUTLET AIR NODE,Air,3
 Node,230,LT_RETAIL_4 DIRECT AIR OUTLET AIR NODE,Air,3
 Node,231,LT_RETAIL_4 ERV INLET AIR NODE,Air,3
 Node,232,LT_RETAIL_4 RETURN AIR NODE,Air,2
 Node,233,OFFICE 1 ERV OUTLET AIR NODE,Air,3
 Node,234,OFFICE 1 DIRECT AIR OUTLET AIR NODE,Air,3
 Node,235,OFFICE 1 ERV INLET AIR NODE,Air,3
 Node,236,OFFICE 1 RETURN AIR NODE,Air,2
 Node,237,0_BDRM_1_2 CENTRAL AIR SOURCE HP SUPPLY OUTLET NODE,Air,4
 Node,238,0_BDRM_1_2 CENTRAL AIR SOURCE HP DEMAND INLET NODE,Air,3
 Node,239,0_BDRM_1_3 CENTRAL AIR SOURCE HP SUPPLY OUTLET NODE,Air,4
 Node,240,0_BDRM_1_3 CENTRAL AIR SOURCE HP DEMAND INLET NODE,Air,3
 Node,241,0_BDRM_1_4 CENTRAL AIR SOURCE HP SUPPLY OUTLET NODE,Air,4
 Node,242,0_BDRM_1_4 CENTRAL AIR SOURCE HP DEMAND INLET NODE,Air,3
 Node,243,0_BDRM_2_2 CENTRAL AIR SOURCE HP SUPPLY OUTLET NODE,Air,4
 Node,244,0_BDRM_2_2 CENTRAL AIR SOURCE HP DEMAND INLET NODE,Air,3
 Node,245,0_BDRM_2_3 CENTRAL AIR SOURCE HP SUPPLY OUTLET NODE,Air,4
 Node,246,0_BDRM_2_3 CENTRAL AIR SOURCE HP DEMAND INLET NODE,Air,3
 Node,247,0_BDRM_2_4 CENTRAL AIR SOURCE HP SUPPLY OUTLET NODE,Air,4
 Node,248,0_BDRM_2_4 CENTRAL AIR SOURCE HP DEMAND INLET NODE,Air,3
 Node,249,0_BDRM_3_2 CENTRAL AIR SOURCE HP SUPPLY OUTLET NODE,Air,4
 Node,250,0_BDRM_3_2 CENTRAL AIR SOURCE HP DEMAND INLET NODE,Air,3
 Node,251,0_BDRM_3_3 CENTRAL AIR SOURCE HP SUPPLY OUTLET NODE,Air,4
 Node,252,0_BDRM_3_3 CENTRAL AIR SOURCE HP DEMAND INLET NODE,Air,3
 Node,253,0_BDRM_3_4 CENTRAL AIR SOURCE HP SUPPLY OUTLET NODE,Air,4
 Node,254,0_BDRM_3_4 CENTRAL AIR SOURCE HP DEMAND INLET NODE,Air,3
 Node,255,0_BDRM_4_2 CENTRAL AIR SOURCE HP SUPPLY OUTLET NODE,Air,4
 Node,256,0_BDRM_4_2 CENTRAL AIR SOURCE HP DEMAND INLET NODE,Air,3
 Node,257,0_BDRM_4_3 CENTRAL AIR SOURCE HP SUPPLY OUTLET NODE,Air,4
 Node,258,0_BDRM_4_3 CENTRAL AIR SOURCE HP DEMAND INLET NODE,Air,3
 Node,259,0_BDRM_4_4 CENTRAL AIR SOURCE HP SUPPLY OUTLET NODE,Air,4
 Node,260,0_BDRM_4_4 CENTRAL AIR SOURCE HP DEMAND INLET NODE,Air,3
 Node,261,1_BDRM_1_2 CENTRAL AIR SOURCE HP SUPPLY OUTLET NODE,Air,4
 Node,262,1_BDRM_1_2 CENTRAL AIR SOURCE HP DEMAND INLET NODE,Air,3
 Node,263,1_BDRM_1_3 CENTRAL AIR SOURCE HP SUPPLY OUTLET NODE,Air,4
 Node,264,1_BDRM_1_3 CENTRAL AIR SOURCE HP DEMAND INLET NODE,Air,3
 Node,265,1_BDRM_1_4 CENTRAL AIR SOURCE HP SUPPLY OUTLET NODE,Air,4
 Node,266,1_BDRM_1_4 CENTRAL AIR SOURCE HP DEMAND INLET NODE,Air,3
 Node,267,1_BDRM_2_2 CENTRAL AIR SOURCE HP SUPPLY OUTLET NODE,Air,4
 Node,268,1_BDRM_2_2 CENTRAL AIR SOURCE HP DEMAND INLET NODE,Air,3
 Node,269,1_BDRM_2_3 CENTRAL AIR SOURCE HP SUPPLY OUTLET NODE,Air,4
 Node,270,1_BDRM_2_3 CENTRAL AIR SOURCE HP DEMAND INLET NODE,Air,3
 Node,271,1_BDRM_2_4 CENTRAL AIR SOURCE HP SUPPLY OUTLET NODE,Air,4
 Node,272,1_BDRM_2_4 CENTRAL AIR SOURCE HP DEMAND INLET NODE,Air,3
 Node,273,1_BDRM_3_2 CENTRAL AIR SOURCE HP SUPPLY OUTLET NODE,Air,4
 Node,274,1_BDRM_3_2 CENTRAL AIR SOURCE HP DEMAND INLET NODE,Air,3
 Node,275,1_BDRM_3_3 CENTRAL AIR SOURCE HP SUPPLY OUTLET NODE,Air,4
 Node,276,1_BDRM_3_3 CENTRAL AIR SOURCE HP DEMAND INLET NODE,Air,3
 Node,277,1_BDRM_3_4 CENTRAL AIR SOURCE HP SUPPLY OUTLET NODE,Air,4
 Node,278,1_BDRM_3_4 CENTRAL AIR SOURCE HP DEMAND INLET NODE,Air,3
 Node,279,1_BDRM_4_2 CENTRAL AIR SOURCE HP SUPPLY OUTLET NODE,Air,4
 Node,280,1_BDRM_4_2 CENTRAL AIR SOURCE HP DEMAND INLET NODE,Air,3
 Node,281,1_BDRM_4_3 CENTRAL AIR SOURCE HP SUPPLY OUTLET NODE,Air,4
 Node,282,1_BDRM_4_3 CENTRAL AIR SOURCE HP DEMAND INLET NODE,Air,3
 Node,283,1_BDRM_4_4 CENTRAL AIR SOURCE HP SUPPLY OUTLET NODE,Air,4
 Node,284,1_BDRM_4_4 CENTRAL AIR SOURCE HP DEMAND INLET NODE,Air,3
 Node,285,1_BDRM_5_2 CENTRAL AIR SOURCE HP SUPPLY OUTLET NODE,Air,4
 Node,286,1_BDRM_5_2 CENTRAL AIR SOURCE HP DEMAND INLET NODE,Air,3
 Node,287,1_BDRM_5_3 CENTRAL AIR SOURCE HP SUPPLY OUTLET NODE,Air,4
 Node,288,1_BDRM_5_3 CENTRAL AIR SOURCE HP DEMAND INLET NODE,Air,3
 Node,289,1_BDRM_5_4 CENTRAL AIR SOURCE HP SUPPLY OUTLET NODE,Air,4
 Node,290,1_BDRM_5_4 CENTRAL AIR SOURCE HP DEMAND INLET NODE,Air,3
 Node,291,1_BDRM_6_2 CENTRAL AIR SOURCE HP SUPPLY OUTLET NODE,Air,4
 Node,292,1_BDRM_6_2 CENTRAL AIR SOURCE HP DEMAND INLET NODE,Air,3
 Node,293,1_BDRM_6_3 CENTRAL AIR SOURCE HP SUPPLY OUTLET NODE,Air,4
 Node,294,1_BDRM_6_3 CENTRAL AIR SOURCE HP DEMAND INLET NODE,Air,3
 Node,295,1_BDRM_6_4 CENTRAL AIR SOURCE HP SUPPLY OUTLET NODE,Air,4
 Node,296,1_BDRM_6_4 CENTRAL AIR SOURCE HP DEMAND INLET NODE,Air,3
 Node,297,1_BDRM_7_2 CENTRAL AIR SOURCE HP SUPPLY OUTLET NODE,Air,4
 Node,298,1_BDRM_7_2 CENTRAL AIR SOURCE HP DEMAND INLET NODE,Air,3
 Node,299,1_BDRM_7_3 CENTRAL AIR SOURCE HP SUPPLY OUTLET NODE,Air,4
 Node,300,1_BDRM_7_3 CENTRAL AIR SOURCE HP DEMAND INLET NODE,Air,3
 Node,301,1_BDRM_7_4 CENTRAL AIR SOURCE HP SUPPLY OUTLET NODE,Air,4
 Node,302,1_BDRM_7_4 CENTRAL AIR SOURCE HP DEMAND INLET NODE,Air,3
 Node,303,2_BDRM_1_2 CENTRAL AIR SOURCE HP SUPPLY OUTLET NODE,Air,4
 Node,304,2_BDRM_1_2 CENTRAL AIR SOURCE HP DEMAND INLET NODE,Air,3
 Node,305,2_BDRM_1_3 CENTRAL AIR SOURCE HP SUPPLY OUTLET NODE,Air,4
 Node,306,2_BDRM_1_3 CENTRAL AIR SOURCE HP DEMAND INLET NODE,Air,3
 Node,307,2_BDRM_1_4 CENTRAL AIR SOURCE HP SUPPLY OUTLET NODE,Air,4
 Node,308,2_BDRM_1_4 CENTRAL AIR SOURCE HP DEMAND INLET NODE,Air,3
 Node,309,2_BDRM_2_2 CENTRAL AIR SOURCE HP SUPPLY OUTLET NODE,Air,4
 Node,310,2_BDRM_2_2 CENTRAL AIR SOURCE HP DEMAND INLET NODE,Air,3
 Node,311,2_BDRM_2_3 CENTRAL AIR SOURCE HP SUPPLY OUTLET NODE,Air,4
 Node,312,2_BDRM_2_3 CENTRAL AIR SOURCE HP DEMAND INLET NODE,Air,3
 Node,313,2_BDRM_2_4 CENTRAL AIR SOURCE HP SUPPLY OUTLET NODE,Air,4
 Node,314,2_BDRM_2_4 CENTRAL AIR SOURCE HP DEMAND INLET NODE,Air,3
 Node,315,2_BDRM_3_2 CENTRAL AIR SOURCE HP SUPPLY OUTLET NODE,Air,4
 Node,316,2_BDRM_3_2 CENTRAL AIR SOURCE HP DEMAND INLET NODE,Air,3
 Node,317,2_BDRM_3_3 CENTRAL AIR SOURCE HP SUPPLY OUTLET NODE,Air,4
 Node,318,2_BDRM_3_3 CENTRAL AIR SOURCE HP DEMAND INLET NODE,Air,3
 Node,319,2_BDRM_3_4 CENTRAL AIR SOURCE HP SUPPLY OUTLET NODE,Air,4
 Node,320,2_BDRM_3_4 CENTRAL AIR SOURCE HP DEMAND INLET NODE,Air,3
 Node,321,3_BDRM_1_3 CENTRAL AIR SOURCE HP SUPPLY OUTLET NODE,Air,4
 Node,322,3_BDRM_1_3 CENTRAL AIR SOURCE HP DEMAND INLET NODE,Air,3
 Node,323,3_BDRM_1_4 CENTRAL AIR SOURCE HP SUPPLY OUTLET NODE,Air,4
 Node,324,3_BDRM_1_4 CENTRAL AIR SOURCE HP DEMAND INLET NODE,Air,3
 Node,325,3_BDRM_2_2 CENTRAL AIR SOURCE HP SUPPLY OUTLET NODE,Air,4
 Node,326,3_BDRM_2_2 CENTRAL AIR SOURCE HP DEMAND INLET NODE,Air,3
 Node,327,BATHRM_1 CENTRAL AIR SOURCE HP SUPPLY OUTLET NODE,Air,4
 Node,328,BATHRM_1 CENTRAL AIR SOURCE HP DEMAND INLET NODE,Air,3
 Node,329,BATHRM_2 CENTRAL AIR SOURCE HP SUPPLY OUTLET NODE,Air,4
 Node,330,BATHRM_2 CENTRAL AIR SOURCE HP DEMAND INLET NODE,Air,3
 Node,331,COFFEE_SHOP CENTRAL AIR SOURCE HP SUPPLY OUTLET NODE,Air,4
 Node,332,COFFEE_SHOP CENTRAL AIR SOURCE HP DEMAND INLET NODE,Air,3
 Node,333,COMMUNITY_RM CENTRAL AIR SOURCE HP SUPPLY OUTLET NODE,Air,4
 Node,334,COMMUNITY_RM CENTRAL AIR SOURCE HP DEMAND INLET NODE,Air,3
 Node,335,CORRIDOR CENTRAL AIR SOURCE HP SUPPLY OUTLET NODE,Air,4
 Node,336,CORRIDOR CENTRAL AIR SOURCE HP DEMAND INLET NODE,Air,3
 Node,337,CORRIDOR_2 CENTRAL AIR SOURCE HP SUPPLY OUTLET NODE,Air,4
 Node,338,CORRIDOR_2 CENTRAL AIR SOURCE HP DEMAND INLET NODE,Air,3
 Node,339,CORRIDOR_3 CENTRAL AIR SOURCE HP SUPPLY OUTLET NODE,Air,4
 Node,340,CORRIDOR_3 CENTRAL AIR SOURCE HP DEMAND INLET NODE,Air,3
 Node,341,CORRIDOR_4 CENTRAL AIR SOURCE HP SUPPLY OUTLET NODE,Air,4
 Node,342,CORRIDOR_4 CENTRAL AIR SOURCE HP DEMAND INLET NODE,Air,3
 Node,343,GYM 1 CENTRAL AIR SOURCE HP SUPPLY OUTLET NODE,Air,4
 Node,344,GYM 1 CENTRAL AIR SOURCE HP DEMAND INLET NODE,Air,3
 Node,345,LT_RETAIL_1 CENTRAL AIR SOURCE HP SUPPLY OUTLET NODE,Air,4
 Node,346,LT_RETAIL_1 CENTRAL AIR SOURCE HP DEMAND INLET NODE,Air,3
 Node,347,LT_RETAIL_2 CENTRAL AIR SOURCE HP SUPPLY OUTLET NODE,Air,4
 Node,348,LT_RETAIL_2 CENTRAL AIR SOURCE HP DEMAND INLET NODE,Air,3
 Node,349,LT_RETAIL_3 CENTRAL AIR SOURCE HP SUPPLY OUTLET NODE,Air,4
 Node,350,LT_RETAIL_3 CENTRAL AIR SOURCE HP DEMAND INLET NODE,Air,3
 Node,351,LT_RETAIL_4 CENTRAL AIR SOURCE HP SUPPLY OUTLET NODE,Air,4
 Node,352,LT_RETAIL_4 CENTRAL AIR SOURCE HP DEMAND INLET NODE,Air,3
 Node,353,OFFICE 1 CENTRAL AIR SOURCE HP SUPPLY OUTLET NODE,Air,4
 Node,354,OFFICE 1 CENTRAL AIR SOURCE HP DEMAND INLET NODE,Air,3
 Node,355,0_BDRM_1_2 CENTRAL AIR SOURCE HP SUPPLY INLET NODE,Air,3
 Node,356,0_BDRM_1_3 CENTRAL AIR SOURCE HP SUPPLY INLET NODE,Air,3
 Node,357,0_BDRM_1_4 CENTRAL AIR SOURCE HP SUPPLY INLET NODE,Air,3
 Node,358,0_BDRM_2_2 CENTRAL AIR SOURCE HP SUPPLY INLET NODE,Air,3
 Node,359,0_BDRM_2_3 CENTRAL AIR SOURCE HP SUPPLY INLET NODE,Air,3
 Node,360,0_BDRM_2_4 CENTRAL AIR SOURCE HP SUPPLY INLET NODE,Air,3
 Node,361,0_BDRM_3_2 CENTRAL AIR SOURCE HP SUPPLY INLET NODE,Air,3
 Node,362,0_BDRM_3_3 CENTRAL AIR SOURCE HP SUPPLY INLET NODE,Air,3
 Node,363,0_BDRM_3_4 CENTRAL AIR SOURCE HP SUPPLY INLET NODE,Air,3
 Node,364,0_BDRM_4_2 CENTRAL AIR SOURCE HP SUPPLY INLET NODE,Air,3
 Node,365,0_BDRM_4_3 CENTRAL AIR SOURCE HP SUPPLY INLET NODE,Air,3
 Node,366,0_BDRM_4_4 CENTRAL AIR SOURCE HP SUPPLY INLET NODE,Air,3
 Node,367,1_BDRM_1_2 CENTRAL AIR SOURCE HP SUPPLY INLET NODE,Air,3
 Node,368,1_BDRM_1_3 CENTRAL AIR SOURCE HP SUPPLY INLET NODE,Air,3
 Node,369,1_BDRM_1_4 CENTRAL AIR SOURCE HP SUPPLY INLET NODE,Air,3
 Node,370,1_BDRM_2_2 CENTRAL AIR SOURCE HP SUPPLY INLET NODE,Air,3
 Node,371,1_BDRM_2_3 CENTRAL AIR SOURCE HP SUPPLY INLET NODE,Air,3
 Node,372,1_BDRM_2_4 CENTRAL AIR SOURCE HP SUPPLY INLET NODE,Air,3
 Node,373,1_BDRM_3_2 CENTRAL AIR SOURCE HP SUPPLY INLET NODE,Air,3
 Node,374,1_BDRM_3_3 CENTRAL AIR SOURCE HP SUPPLY INLET NODE,Air,3
 Node,375,1_BDRM_3_4 CENTRAL AIR SOURCE HP SUPPLY INLET NODE,Air,3
 Node,376,1_BDRM_4_2 CENTRAL AIR SOURCE HP SUPPLY INLET NODE,Air,3
 Node,377,1_BDRM_4_3 CENTRAL AIR SOURCE HP SUPPLY INLET NODE,Air,3
 Node,378,1_BDRM_4_4 CENTRAL AIR SOURCE HP SUPPLY INLET NODE,Air,3
 Node,379,1_BDRM_5_2 CENTRAL AIR SOURCE HP SUPPLY INLET NODE,Air,3
 Node,380,1_BDRM_5_3 CENTRAL AIR SOURCE HP SUPPLY INLET NODE,Air,3
 Node,381,1_BDRM_5_4 CENTRAL AIR SOURCE HP SUPPLY INLET NODE,Air,3
 Node,382,1_BDRM_6_2 CENTRAL AIR SOURCE HP SUPPLY INLET NODE,Air,3
 Node,383,1_BDRM_6_3 CENTRAL AIR SOURCE HP SUPPLY INLET NODE,Air,3
 Node,384,1_BDRM_6_4 CENTRAL AIR SOURCE HP SUPPLY INLET NODE,Air,3
 Node,385,1_BDRM_7_2 CENTRAL AIR SOURCE HP SUPPLY INLET NODE,Air,3
 Node,386,1_BDRM_7_3 CENTRAL AIR SOURCE HP SUPPLY INLET NODE,Air,3
 Node,387,1_BDRM_7_4 CENTRAL AIR SOURCE HP SUPPLY INLET NODE,Air,3
 Node,388,2_BDRM_1_2 CENTRAL AIR SOURCE HP SUPPLY INLET NODE,Air,3
 Node,389,2_BDRM_1_3 CENTRAL AIR SOURCE HP SUPPLY INLET NODE,Air,3
 Node,390,2_BDRM_1_4 CENTRAL AIR SOURCE HP SUPPLY INLET NODE,Air,3
 Node,391,2_BDRM_2_2 CENTRAL AIR SOURCE HP SUPPLY INLET NODE,Air,3
 Node,392,2_BDRM_2_3 CENTRAL AIR SOURCE HP SUPPLY INLET NODE,Air,3
 Node,393,2_BDRM_2_4 CENTRAL AIR SOURCE HP SUPPLY INLET NODE,Air,3
 Node,394,2_BDRM_3_2 CENTRAL AIR SOURCE HP SUPPLY INLET NODE,Air,3
 Node,395,2_BDRM_3_3 CENTRAL AIR SOURCE HP SUPPLY INLET NODE,Air,3
 Node,396,2_BDRM_3_4 CENTRAL AIR SOURCE HP SUPPLY INLET NODE,Air,3
 Node,397,3_BDRM_1_3 CENTRAL AIR SOURCE HP SUPPLY INLET NODE,Air,3
 Node,398,3_BDRM_1_4 CENTRAL AIR SOURCE HP SUPPLY INLET NODE,Air,3
 Node,399,3_BDRM_2_2 CENTRAL AIR SOURCE HP SUPPLY INLET NODE,Air,3
 Node,400,BATHRM_1 CENTRAL AIR SOURCE HP SUPPLY INLET NODE,Air,3
 Node,401,BATHRM_2 CENTRAL AIR SOURCE HP SUPPLY INLET NODE,Air,3
 Node,402,COFFEE_SHOP CENTRAL AIR SOURCE HP SUPPLY INLET NODE,Air,3
 Node,403,COMMUNITY_RM CENTRAL AIR SOURCE HP SUPPLY INLET NODE,Air,3
 Node,404,CORRIDOR CENTRAL AIR SOURCE HP SUPPLY INLET NODE,Air,3
 Node,405,CORRIDOR_2 CENTRAL AIR SOURCE HP SUPPLY INLET NODE,Air,3
 Node,406,CORRIDOR_3 CENTRAL AIR SOURCE HP SUPPLY INLET NODE,Air,3
 Node,407,CORRIDOR_4 CENTRAL AIR SOURCE HP SUPPLY INLET NODE,Air,3
 Node,408,GYM 1 CENTRAL AIR SOURCE HP SUPPLY INLET NODE,Air,3
 Node,409,LT_RETAIL_1 CENTRAL AIR SOURCE HP SUPPLY INLET NODE,Air,3
 Node,410,LT_RETAIL_2 CENTRAL AIR SOURCE HP SUPPLY INLET NODE,Air,3
 Node,411,LT_RETAIL_3 CENTRAL AIR SOURCE HP SUPPLY INLET NODE,Air,3
 Node,412,LT_RETAIL_4 CENTRAL AIR SOURCE HP SUPPLY INLET NODE,Air,3
 Node,413,OFFICE 1 CENTRAL AIR SOURCE HP SUPPLY INLET NODE,Air,3
 Node,414,DOMESTIC HOT WATER LOOP|BUILDING UNIT 001 SUPPLY INLET NODE,Water,2
 Node,415,PUMP VARIABLE SPEED 1 OUTLET WATER NODE,Water,1
 Node,416,PIPE ADIABATIC 1 INLET WATER NODE,Water,1
 Node,417,PIPE ADIABATIC 1 OUTLET WATER NODE,Water,1
 Node,418,RES WH|BUILDING UNIT 001 SUPPLY INLET WATER NODE,Water,1
 Node,419,RES WH|BUILDING UNIT 001 SUPPLY OUTLET WATER NODE,Water,1
 Node,420,PIPE ADIABATIC 2 INLET WATER NODE,Water,1
 Node,421,DOMESTIC HOT WATER LOOP|BUILDING UNIT 001 SUPPLY OUTLET NODE,Water,4
 Node,422,DOMESTIC HOT WATER LOOP|BUILDING UNIT 001 DEMAND INLET NODE,Water,2
 Node,423,DOMESTIC HOT WATER LOOP|BUILDING UNIT 001 DEMAND INLET PIPE NODE,Water,1
 Node,424,WATER USE CONNECTIONS 1 INLET WATER NODE,Water,1
 Node,425,WATER USE CONNECTIONS 1 OUTLET WATER NODE,Water,1
 Node,426,DOMESTIC HOT WATER LOOP|BUILDING UNIT 001 DEMAND BYPASS PIPE INLET NODE,Water,1
 Node,427,DOMESTIC HOT WATER LOOP|BUILDING UNIT 001 DEMAND BYPASS PIPE OUTLET NODE,Water,1
 Node,428,DOMESTIC HOT WATER LOOP|BUILDING UNIT 001 DEMAND OUTLET PIPE NODE,Water,1
 Node,429,DOMESTIC HOT WATER LOOP|BUILDING UNIT 001 DEMAND OUTLET NODE,Water,2
 Node,430,DOMESTIC HOT WATER LOOP|BUILDING UNIT 002 SUPPLY INLET NODE,Water,2
 Node,431,PUMP VARIABLE SPEED 2 OUTLET WATER NODE,Water,1
 Node,432,PIPE ADIABATIC 3 INLET WATER NODE,Water,1
 Node,433,PIPE ADIABATIC 3 OUTLET WATER NODE,Water,1
 Node,434,RES WH|BUILDING UNIT 002 SUPPLY INLET WATER NODE,Water,1
 Node,435,RES WH|BUILDING UNIT 002 SUPPLY OUTLET WATER NODE,Water,1
 Node,436,PIPE ADIABATIC 4 INLET WATER NODE,Water,1
 Node,437,DOMESTIC HOT WATER LOOP|BUILDING UNIT 002 SUPPLY OUTLET NODE,Water,4
 Node,438,DOMESTIC HOT WATER LOOP|BUILDING UNIT 002 DEMAND INLET NODE,Water,2
 Node,439,DOMESTIC HOT WATER LOOP|BUILDING UNIT 002 DEMAND INLET PIPE NODE,Water,1
 Node,440,WATER USE CONNECTIONS 2 INLET WATER NODE,Water,1
 Node,441,WATER USE CONNECTIONS 2 OUTLET WATER NODE,Water,1
 Node,442,DOMESTIC HOT WATER LOOP|BUILDING UNIT 002 DEMAND BYPASS PIPE INLET NODE,Water,1
 Node,443,DOMESTIC HOT WATER LOOP|BUILDING UNIT 002 DEMAND BYPASS PIPE OUTLET NODE,Water,1
 Node,444,DOMESTIC HOT WATER LOOP|BUILDING UNIT 002 DEMAND OUTLET PIPE NODE,Water,1
 Node,445,DOMESTIC HOT WATER LOOP|BUILDING UNIT 002 DEMAND OUTLET NODE,Water,2
 Node,446,DOMESTIC HOT WATER LOOP|BUILDING UNIT 003 SUPPLY INLET NODE,Water,2
 Node,447,PUMP VARIABLE SPEED 3 OUTLET WATER NODE,Water,1
 Node,448,PIPE ADIABATIC 5 INLET WATER NODE,Water,1
 Node,449,PIPE ADIABATIC 5 OUTLET WATER NODE,Water,1
 Node,450,RES WH|BUILDING UNIT 003 SUPPLY INLET WATER NODE,Water,1
 Node,451,RES WH|BUILDING UNIT 003 SUPPLY OUTLET WATER NODE,Water,1
 Node,452,PIPE ADIABATIC 6 INLET WATER NODE,Water,1
 Node,453,DOMESTIC HOT WATER LOOP|BUILDING UNIT 003 SUPPLY OUTLET NODE,Water,4
 Node,454,DOMESTIC HOT WATER LOOP|BUILDING UNIT 003 DEMAND INLET NODE,Water,2
 Node,455,DOMESTIC HOT WATER LOOP|BUILDING UNIT 003 DEMAND INLET PIPE NODE,Water,1
 Node,456,WATER USE CONNECTIONS 3 INLET WATER NODE,Water,1
 Node,457,WATER USE CONNECTIONS 3 OUTLET WATER NODE,Water,1
 Node,458,DOMESTIC HOT WATER LOOP|BUILDING UNIT 003 DEMAND BYPASS PIPE INLET NODE,Water,1
 Node,459,DOMESTIC HOT WATER LOOP|BUILDING UNIT 003 DEMAND BYPASS PIPE OUTLET NODE,Water,1
 Node,460,DOMESTIC HOT WATER LOOP|BUILDING UNIT 003 DEMAND OUTLET PIPE NODE,Water,1
 Node,461,DOMESTIC HOT WATER LOOP|BUILDING UNIT 003 DEMAND OUTLET NODE,Water,2
 Node,462,DOMESTIC HOT WATER LOOP|BUILDING UNIT 004 SUPPLY INLET NODE,Water,2
 Node,463,PUMP VARIABLE SPEED 4 OUTLET WATER NODE,Water,1
 Node,464,PIPE ADIABATIC 7 INLET WATER NODE,Water,1
 Node,465,PIPE ADIABATIC 7 OUTLET WATER NODE,Water,1
 Node,466,RES WH|BUILDING UNIT 004 SUPPLY INLET WATER NODE,Water,1
 Node,467,RES WH|BUILDING UNIT 004 SUPPLY OUTLET WATER NODE,Water,1
 Node,468,PIPE ADIABATIC 8 INLET WATER NODE,Water,1
 Node,469,DOMESTIC HOT WATER LOOP|BUILDING UNIT 004 SUPPLY OUTLET NODE,Water,4
 Node,470,DOMESTIC HOT WATER LOOP|BUILDING UNIT 004 DEMAND INLET NODE,Water,2
 Node,471,DOMESTIC HOT WATER LOOP|BUILDING UNIT 004 DEMAND INLET PIPE NODE,Water,1
 Node,472,WATER USE CONNECTIONS 4 INLET WATER NODE,Water,1
 Node,473,WATER USE CONNECTIONS 4 OUTLET WATER NODE,Water,1
 Node,474,DOMESTIC HOT WATER LOOP|BUILDING UNIT 004 DEMAND BYPASS PIPE INLET NODE,Water,1
 Node,475,DOMESTIC HOT WATER LOOP|BUILDING UNIT 004 DEMAND BYPASS PIPE OUTLET NODE,Water,1
 Node,476,DOMESTIC HOT WATER LOOP|BUILDING UNIT 004 DEMAND OUTLET PIPE NODE,Water,1
 Node,477,DOMESTIC HOT WATER LOOP|BUILDING UNIT 004 DEMAND OUTLET NODE,Water,2
 Node,478,DOMESTIC HOT WATER LOOP|BUILDING UNIT 005 SUPPLY INLET NODE,Water,2
 Node,479,PUMP VARIABLE SPEED 5 OUTLET WATER NODE,Water,1
 Node,480,PIPE ADIABATIC 9 INLET WATER NODE,Water,1
 Node,481,PIPE ADIABATIC 9 OUTLET WATER NODE,Water,1
 Node,482,RES WH|BUILDING UNIT 005 SUPPLY INLET WATER NODE,Water,1
 Node,483,RES WH|BUILDING UNIT 005 SUPPLY OUTLET WATER NODE,Water,1
 Node,484,PIPE ADIABATIC 10 INLET WATER NODE,Water,1
 Node,485,DOMESTIC HOT WATER LOOP|BUILDING UNIT 005 SUPPLY OUTLET NODE,Water,4
 Node,486,DOMESTIC HOT WATER LOOP|BUILDING UNIT 005 DEMAND INLET NODE,Water,2
 Node,487,DOMESTIC HOT WATER LOOP|BUILDING UNIT 005 DEMAND INLET PIPE NODE,Water,1
 Node,488,WATER USE CONNECTIONS 5 INLET WATER NODE,Water,1
 Node,489,WATER USE CONNECTIONS 5 OUTLET WATER NODE,Water,1
 Node,490,DOMESTIC HOT WATER LOOP|BUILDING UNIT 005 DEMAND BYPASS PIPE INLET NODE,Water,1
 Node,491,DOMESTIC HOT WATER LOOP|BUILDING UNIT 005 DEMAND BYPASS PIPE OUTLET NODE,Water,1
 Node,492,DOMESTIC HOT WATER LOOP|BUILDING UNIT 005 DEMAND OUTLET PIPE NODE,Water,1
 Node,493,DOMESTIC HOT WATER LOOP|BUILDING UNIT 005 DEMAND OUTLET NODE,Water,2
 Node,494,DOMESTIC HOT WATER LOOP|BUILDING UNIT 006 SUPPLY INLET NODE,Water,2
 Node,495,PUMP VARIABLE SPEED 6 OUTLET WATER NODE,Water,1
 Node,496,PIPE ADIABATIC 11 INLET WATER NODE,Water,1
 Node,497,PIPE ADIABATIC 11 OUTLET WATER NODE,Water,1
 Node,498,RES WH|BUILDING UNIT 006 SUPPLY INLET WATER NODE,Water,1
 Node,499,RES WH|BUILDING UNIT 006 SUPPLY OUTLET WATER NODE,Water,1
 Node,500,PIPE ADIABATIC 12 INLET WATER NODE,Water,1
 Node,501,DOMESTIC HOT WATER LOOP|BUILDING UNIT 006 SUPPLY OUTLET NODE,Water,4
 Node,502,DOMESTIC HOT WATER LOOP|BUILDING UNIT 006 DEMAND INLET NODE,Water,2
 Node,503,DOMESTIC HOT WATER LOOP|BUILDING UNIT 006 DEMAND INLET PIPE NODE,Water,1
 Node,504,WATER USE CONNECTIONS 6 INLET WATER NODE,Water,1
 Node,505,WATER USE CONNECTIONS 6 OUTLET WATER NODE,Water,1
 Node,506,DOMESTIC HOT WATER LOOP|BUILDING UNIT 006 DEMAND BYPASS PIPE INLET NODE,Water,1
 Node,507,DOMESTIC HOT WATER LOOP|BUILDING UNIT 006 DEMAND BYPASS PIPE OUTLET NODE,Water,1
 Node,508,DOMESTIC HOT WATER LOOP|BUILDING UNIT 006 DEMAND OUTLET PIPE NODE,Water,1
 Node,509,DOMESTIC HOT WATER LOOP|BUILDING UNIT 006 DEMAND OUTLET NODE,Water,2
 Node,510,DOMESTIC HOT WATER LOOP|BUILDING UNIT 007 SUPPLY INLET NODE,Water,2
 Node,511,PUMP VARIABLE SPEED 7 OUTLET WATER NODE,Water,1
 Node,512,PIPE ADIABATIC 13 INLET WATER NODE,Water,1
 Node,513,PIPE ADIABATIC 13 OUTLET WATER NODE,Water,1
 Node,514,RES WH|BUILDING UNIT 007 SUPPLY INLET WATER NODE,Water,1
 Node,515,RES WH|BUILDING UNIT 007 SUPPLY OUTLET WATER NODE,Water,1
 Node,516,PIPE ADIABATIC 14 INLET WATER NODE,Water,1
 Node,517,DOMESTIC HOT WATER LOOP|BUILDING UNIT 007 SUPPLY OUTLET NODE,Water,4
 Node,518,DOMESTIC HOT WATER LOOP|BUILDING UNIT 007 DEMAND INLET NODE,Water,2
 Node,519,DOMESTIC HOT WATER LOOP|BUILDING UNIT 007 DEMAND INLET PIPE NODE,Water,1
 Node,520,WATER USE CONNECTIONS 7 INLET WATER NODE,Water,1
 Node,521,WATER USE CONNECTIONS 7 OUTLET WATER NODE,Water,1
 Node,522,DOMESTIC HOT WATER LOOP|BUILDING UNIT 007 DEMAND BYPASS PIPE INLET NODE,Water,1
 Node,523,DOMESTIC HOT WATER LOOP|BUILDING UNIT 007 DEMAND BYPASS PIPE OUTLET NODE,Water,1
 Node,524,DOMESTIC HOT WATER LOOP|BUILDING UNIT 007 DEMAND OUTLET PIPE NODE,Water,1
 Node,525,DOMESTIC HOT WATER LOOP|BUILDING UNIT 007 DEMAND OUTLET NODE,Water,2
 Node,526,DOMESTIC HOT WATER LOOP|BUILDING UNIT 008 SUPPLY INLET NODE,Water,2
 Node,527,PUMP VARIABLE SPEED 8 OUTLET WATER NODE,Water,1
 Node,528,PIPE ADIABATIC 15 INLET WATER NODE,Water,1
 Node,529,PIPE ADIABATIC 15 OUTLET WATER NODE,Water,1
 Node,530,RES WH|BUILDING UNIT 008 SUPPLY INLET WATER NODE,Water,1
 Node,531,RES WH|BUILDING UNIT 008 SUPPLY OUTLET WATER NODE,Water,1
 Node,532,PIPE ADIABATIC 16 INLET WATER NODE,Water,1
 Node,533,DOMESTIC HOT WATER LOOP|BUILDING UNIT 008 SUPPLY OUTLET NODE,Water,4
 Node,534,DOMESTIC HOT WATER LOOP|BUILDING UNIT 008 DEMAND INLET NODE,Water,2
 Node,535,DOMESTIC HOT WATER LOOP|BUILDING UNIT 008 DEMAND INLET PIPE NODE,Water,1
 Node,536,WATER USE CONNECTIONS 8 INLET WATER NODE,Water,1
 Node,537,WATER USE CONNECTIONS 8 OUTLET WATER NODE,Water,1
 Node,538,DOMESTIC HOT WATER LOOP|BUILDING UNIT 008 DEMAND BYPASS PIPE INLET NODE,Water,1
 Node,539,DOMESTIC HOT WATER LOOP|BUILDING UNIT 008 DEMAND BYPASS PIPE OUTLET NODE,Water,1
 Node,540,DOMESTIC HOT WATER LOOP|BUILDING UNIT 008 DEMAND OUTLET PIPE NODE,Water,1
 Node,541,DOMESTIC HOT WATER LOOP|BUILDING UNIT 008 DEMAND OUTLET NODE,Water,2
 Node,542,DOMESTIC HOT WATER LOOP|BUILDING UNIT 009 SUPPLY INLET NODE,Water,2
 Node,543,PUMP VARIABLE SPEED 9 OUTLET WATER NODE,Water,1
 Node,544,PIPE ADIABATIC 17 INLET WATER NODE,Water,1
 Node,545,PIPE ADIABATIC 17 OUTLET WATER NODE,Water,1
 Node,546,RES WH|BUILDING UNIT 009 SUPPLY INLET WATER NODE,Water,1
 Node,547,RES WH|BUILDING UNIT 009 SUPPLY OUTLET WATER NODE,Water,1
 Node,548,PIPE ADIABATIC 18 INLET WATER NODE,Water,1
 Node,549,DOMESTIC HOT WATER LOOP|BUILDING UNIT 009 SUPPLY OUTLET NODE,Water,4
 Node,550,DOMESTIC HOT WATER LOOP|BUILDING UNIT 009 DEMAND INLET NODE,Water,2
 Node,551,DOMESTIC HOT WATER LOOP|BUILDING UNIT 009 DEMAND INLET PIPE NODE,Water,1
 Node,552,WATER USE CONNECTIONS 9 INLET WATER NODE,Water,1
 Node,553,WATER USE CONNECTIONS 9 OUTLET WATER NODE,Water,1
 Node,554,DOMESTIC HOT WATER LOOP|BUILDING UNIT 009 DEMAND BYPASS PIPE INLET NODE,Water,1
 Node,555,DOMESTIC HOT WATER LOOP|BUILDING UNIT 009 DEMAND BYPASS PIPE OUTLET NODE,Water,1
 Node,556,DOMESTIC HOT WATER LOOP|BUILDING UNIT 009 DEMAND OUTLET PIPE NODE,Water,1
 Node,557,DOMESTIC HOT WATER LOOP|BUILDING UNIT 009 DEMAND OUTLET NODE,Water,2
 Node,558,DOMESTIC HOT WATER LOOP|BUILDING UNIT 010 SUPPLY INLET NODE,Water,2
 Node,559,PUMP VARIABLE SPEED 10 OUTLET WATER NODE,Water,1
 Node,560,PIPE ADIABATIC 19 INLET WATER NODE,Water,1
 Node,561,PIPE ADIABATIC 19 OUTLET WATER NODE,Water,1
 Node,562,RES WH|BUILDING UNIT 010 SUPPLY INLET WATER NODE,Water,1
 Node,563,RES WH|BUILDING UNIT 010 SUPPLY OUTLET WATER NODE,Water,1
 Node,564,PIPE ADIABATIC 20 INLET WATER NODE,Water,1
 Node,565,DOMESTIC HOT WATER LOOP|BUILDING UNIT 010 SUPPLY OUTLET NODE,Water,4
 Node,566,DOMESTIC HOT WATER LOOP|BUILDING UNIT 010 DEMAND INLET NODE,Water,2
 Node,567,DOMESTIC HOT WATER LOOP|BUILDING UNIT 010 DEMAND INLET PIPE NODE,Water,1
 Node,568,WATER USE CONNECTIONS 10 INLET WATER NODE,Water,1
 Node,569,WATER USE CONNECTIONS 10 OUTLET WATER NODE,Water,1
 Node,570,DOMESTIC HOT WATER LOOP|BUILDING UNIT 010 DEMAND BYPASS PIPE INLET NODE,Water,1
 Node,571,DOMESTIC HOT WATER LOOP|BUILDING UNIT 010 DEMAND BYPASS PIPE OUTLET NODE,Water,1
 Node,572,DOMESTIC HOT WATER LOOP|BUILDING UNIT 010 DEMAND OUTLET PIPE NODE,Water,1
 Node,573,DOMESTIC HOT WATER LOOP|BUILDING UNIT 010 DEMAND OUTLET NODE,Water,2
 Node,574,DOMESTIC HOT WATER LOOP|BUILDING UNIT 011 SUPPLY INLET NODE,Water,2
 Node,575,PUMP VARIABLE SPEED 11 OUTLET WATER NODE,Water,1
 Node,576,PIPE ADIABATIC 21 INLET WATER NODE,Water,1
 Node,577,PIPE ADIABATIC 21 OUTLET WATER NODE,Water,1
 Node,578,RES WH|BUILDING UNIT 011 SUPPLY INLET WATER NODE,Water,1
 Node,579,RES WH|BUILDING UNIT 011 SUPPLY OUTLET WATER NODE,Water,1
 Node,580,PIPE ADIABATIC 22 INLET WATER NODE,Water,1
 Node,581,DOMESTIC HOT WATER LOOP|BUILDING UNIT 011 SUPPLY OUTLET NODE,Water,4
 Node,582,DOMESTIC HOT WATER LOOP|BUILDING UNIT 011 DEMAND INLET NODE,Water,2
 Node,583,DOMESTIC HOT WATER LOOP|BUILDING UNIT 011 DEMAND INLET PIPE NODE,Water,1
 Node,584,WATER USE CONNECTIONS 11 INLET WATER NODE,Water,1
 Node,585,WATER USE CONNECTIONS 11 OUTLET WATER NODE,Water,1
 Node,586,DOMESTIC HOT WATER LOOP|BUILDING UNIT 011 DEMAND BYPASS PIPE INLET NODE,Water,1
 Node,587,DOMESTIC HOT WATER LOOP|BUILDING UNIT 011 DEMAND BYPASS PIPE OUTLET NODE,Water,1
 Node,588,DOMESTIC HOT WATER LOOP|BUILDING UNIT 011 DEMAND OUTLET PIPE NODE,Water,1
 Node,589,DOMESTIC HOT WATER LOOP|BUILDING UNIT 011 DEMAND OUTLET NODE,Water,2
 Node,590,DOMESTIC HOT WATER LOOP|BUILDING UNIT 012 SUPPLY INLET NODE,Water,2
 Node,591,PUMP VARIABLE SPEED 12 OUTLET WATER NODE,Water,1
 Node,592,PIPE ADIABATIC 23 INLET WATER NODE,Water,1
 Node,593,PIPE ADIABATIC 23 OUTLET WATER NODE,Water,1
 Node,594,RES WH|BUILDING UNIT 012 SUPPLY INLET WATER NODE,Water,1
 Node,595,RES WH|BUILDING UNIT 012 SUPPLY OUTLET WATER NODE,Water,1
 Node,596,PIPE ADIABATIC 24 INLET WATER NODE,Water,1
 Node,597,DOMESTIC HOT WATER LOOP|BUILDING UNIT 012 SUPPLY OUTLET NODE,Water,4
 Node,598,DOMESTIC HOT WATER LOOP|BUILDING UNIT 012 DEMAND INLET NODE,Water,2
 Node,599,DOMESTIC HOT WATER LOOP|BUILDING UNIT 012 DEMAND INLET PIPE NODE,Water,1
 Node,600,WATER USE CONNECTIONS 12 INLET WATER NODE,Water,1
 Node,601,WATER USE CONNECTIONS 12 OUTLET WATER NODE,Water,1
 Node,602,DOMESTIC HOT WATER LOOP|BUILDING UNIT 012 DEMAND BYPASS PIPE INLET NODE,Water,1
 Node,603,DOMESTIC HOT WATER LOOP|BUILDING UNIT 012 DEMAND BYPASS PIPE OUTLET NODE,Water,1
 Node,604,DOMESTIC HOT WATER LOOP|BUILDING UNIT 012 DEMAND OUTLET PIPE NODE,Water,1
 Node,605,DOMESTIC HOT WATER LOOP|BUILDING UNIT 012 DEMAND OUTLET NODE,Water,2
 Node,606,DOMESTIC HOT WATER LOOP|BUILDING UNIT 101 SUPPLY INLET NODE,Water,2
 Node,607,PUMP VARIABLE SPEED 13 OUTLET WATER NODE,Water,1
 Node,608,PIPE ADIABATIC 25 INLET WATER NODE,Water,1
 Node,609,PIPE ADIABATIC 25 OUTLET WATER NODE,Water,1
 Node,610,RES WH|BUILDING UNIT 101 SUPPLY INLET WATER NODE,Water,1
 Node,611,RES WH|BUILDING UNIT 101 SUPPLY OUTLET WATER NODE,Water,1
 Node,612,PIPE ADIABATIC 26 INLET WATER NODE,Water,1
 Node,613,DOMESTIC HOT WATER LOOP|BUILDING UNIT 101 SUPPLY OUTLET NODE,Water,4
 Node,614,DOMESTIC HOT WATER LOOP|BUILDING UNIT 101 DEMAND INLET NODE,Water,2
 Node,615,DOMESTIC HOT WATER LOOP|BUILDING UNIT 101 DEMAND INLET PIPE NODE,Water,1
 Node,616,WATER USE CONNECTIONS 13 INLET WATER NODE,Water,1
 Node,617,WATER USE CONNECTIONS 13 OUTLET WATER NODE,Water,1
 Node,618,DOMESTIC HOT WATER LOOP|BUILDING UNIT 101 DEMAND BYPASS PIPE INLET NODE,Water,1
 Node,619,DOMESTIC HOT WATER LOOP|BUILDING UNIT 101 DEMAND BYPASS PIPE OUTLET NODE,Water,1
 Node,620,DOMESTIC HOT WATER LOOP|BUILDING UNIT 101 DEMAND OUTLET PIPE NODE,Water,1
 Node,621,DOMESTIC HOT WATER LOOP|BUILDING UNIT 101 DEMAND OUTLET NODE,Water,2
 Node,622,DOMESTIC HOT WATER LOOP|BUILDING UNIT 102 SUPPLY INLET NODE,Water,2
 Node,623,PUMP VARIABLE SPEED 14 OUTLET WATER NODE,Water,1
 Node,624,PIPE ADIABATIC 27 INLET WATER NODE,Water,1
 Node,625,PIPE ADIABATIC 27 OUTLET WATER NODE,Water,1
 Node,626,RES WH|BUILDING UNIT 102 SUPPLY INLET WATER NODE,Water,1
 Node,627,RES WH|BUILDING UNIT 102 SUPPLY OUTLET WATER NODE,Water,1
 Node,628,PIPE ADIABATIC 28 INLET WATER NODE,Water,1
 Node,629,DOMESTIC HOT WATER LOOP|BUILDING UNIT 102 SUPPLY OUTLET NODE,Water,4
 Node,630,DOMESTIC HOT WATER LOOP|BUILDING UNIT 102 DEMAND INLET NODE,Water,2
 Node,631,DOMESTIC HOT WATER LOOP|BUILDING UNIT 102 DEMAND INLET PIPE NODE,Water,1
 Node,632,WATER USE CONNECTIONS 14 INLET WATER NODE,Water,1
 Node,633,WATER USE CONNECTIONS 14 OUTLET WATER NODE,Water,1
 Node,634,DOMESTIC HOT WATER LOOP|BUILDING UNIT 102 DEMAND BYPASS PIPE INLET NODE,Water,1
 Node,635,DOMESTIC HOT WATER LOOP|BUILDING UNIT 102 DEMAND BYPASS PIPE OUTLET NODE,Water,1
 Node,636,DOMESTIC HOT WATER LOOP|BUILDING UNIT 102 DEMAND OUTLET PIPE NODE,Water,1
 Node,637,DOMESTIC HOT WATER LOOP|BUILDING UNIT 102 DEMAND OUTLET NODE,Water,2
 Node,638,DOMESTIC HOT WATER LOOP|BUILDING UNIT 103 SUPPLY INLET NODE,Water,2
 Node,639,PUMP VARIABLE SPEED 15 OUTLET WATER NODE,Water,1
 Node,640,PIPE ADIABATIC 29 INLET WATER NODE,Water,1
 Node,641,PIPE ADIABATIC 29 OUTLET WATER NODE,Water,1
 Node,642,RES WH|BUILDING UNIT 103 SUPPLY INLET WATER NODE,Water,1
 Node,643,RES WH|BUILDING UNIT 103 SUPPLY OUTLET WATER NODE,Water,1
 Node,644,PIPE ADIABATIC 30 INLET WATER NODE,Water,1
 Node,645,DOMESTIC HOT WATER LOOP|BUILDING UNIT 103 SUPPLY OUTLET NODE,Water,4
 Node,646,DOMESTIC HOT WATER LOOP|BUILDING UNIT 103 DEMAND INLET NODE,Water,2
 Node,647,DOMESTIC HOT WATER LOOP|BUILDING UNIT 103 DEMAND INLET PIPE NODE,Water,1
 Node,648,WATER USE CONNECTIONS 15 INLET WATER NODE,Water,1
 Node,649,WATER USE CONNECTIONS 15 OUTLET WATER NODE,Water,1
 Node,650,DOMESTIC HOT WATER LOOP|BUILDING UNIT 103 DEMAND BYPASS PIPE INLET NODE,Water,1
 Node,651,DOMESTIC HOT WATER LOOP|BUILDING UNIT 103 DEMAND BYPASS PIPE OUTLET NODE,Water,1
 Node,652,DOMESTIC HOT WATER LOOP|BUILDING UNIT 103 DEMAND OUTLET PIPE NODE,Water,1
 Node,653,DOMESTIC HOT WATER LOOP|BUILDING UNIT 103 DEMAND OUTLET NODE,Water,2
 Node,654,DOMESTIC HOT WATER LOOP|BUILDING UNIT 104 SUPPLY INLET NODE,Water,2
 Node,655,PUMP VARIABLE SPEED 16 OUTLET WATER NODE,Water,1
 Node,656,PIPE ADIABATIC 31 INLET WATER NODE,Water,1
 Node,657,PIPE ADIABATIC 31 OUTLET WATER NODE,Water,1
 Node,658,RES WH|BUILDING UNIT 104 SUPPLY INLET WATER NODE,Water,1
 Node,659,RES WH|BUILDING UNIT 104 SUPPLY OUTLET WATER NODE,Water,1
 Node,660,PIPE ADIABATIC 32 INLET WATER NODE,Water,1
 Node,661,DOMESTIC HOT WATER LOOP|BUILDING UNIT 104 SUPPLY OUTLET NODE,Water,4
 Node,662,DOMESTIC HOT WATER LOOP|BUILDING UNIT 104 DEMAND INLET NODE,Water,2
 Node,663,DOMESTIC HOT WATER LOOP|BUILDING UNIT 104 DEMAND INLET PIPE NODE,Water,1
 Node,664,WATER USE CONNECTIONS 16 INLET WATER NODE,Water,1
 Node,665,WATER USE CONNECTIONS 16 OUTLET WATER NODE,Water,1
 Node,666,DOMESTIC HOT WATER LOOP|BUILDING UNIT 104 DEMAND BYPASS PIPE INLET NODE,Water,1
 Node,667,DOMESTIC HOT WATER LOOP|BUILDING UNIT 104 DEMAND BYPASS PIPE OUTLET NODE,Water,1
 Node,668,DOMESTIC HOT WATER LOOP|BUILDING UNIT 104 DEMAND OUTLET PIPE NODE,Water,1
 Node,669,DOMESTIC HOT WATER LOOP|BUILDING UNIT 104 DEMAND OUTLET NODE,Water,2
 Node,670,DOMESTIC HOT WATER LOOP|BUILDING UNIT 105 SUPPLY INLET NODE,Water,2
 Node,671,PUMP VARIABLE SPEED 17 OUTLET WATER NODE,Water,1
 Node,672,PIPE ADIABATIC 33 INLET WATER NODE,Water,1
 Node,673,PIPE ADIABATIC 33 OUTLET WATER NODE,Water,1
 Node,674,RES WH|BUILDING UNIT 105 SUPPLY INLET WATER NODE,Water,1
 Node,675,RES WH|BUILDING UNIT 105 SUPPLY OUTLET WATER NODE,Water,1
 Node,676,PIPE ADIABATIC 34 INLET WATER NODE,Water,1
 Node,677,DOMESTIC HOT WATER LOOP|BUILDING UNIT 105 SUPPLY OUTLET NODE,Water,4
 Node,678,DOMESTIC HOT WATER LOOP|BUILDING UNIT 105 DEMAND INLET NODE,Water,2
 Node,679,DOMESTIC HOT WATER LOOP|BUILDING UNIT 105 DEMAND INLET PIPE NODE,Water,1
 Node,680,WATER USE CONNECTIONS 17 INLET WATER NODE,Water,1
 Node,681,WATER USE CONNECTIONS 17 OUTLET WATER NODE,Water,1
 Node,682,DOMESTIC HOT WATER LOOP|BUILDING UNIT 105 DEMAND BYPASS PIPE INLET NODE,Water,1
 Node,683,DOMESTIC HOT WATER LOOP|BUILDING UNIT 105 DEMAND BYPASS PIPE OUTLET NODE,Water,1
 Node,684,DOMESTIC HOT WATER LOOP|BUILDING UNIT 105 DEMAND OUTLET PIPE NODE,Water,1
 Node,685,DOMESTIC HOT WATER LOOP|BUILDING UNIT 105 DEMAND OUTLET NODE,Water,2
 Node,686,DOMESTIC HOT WATER LOOP|BUILDING UNIT 106 SUPPLY INLET NODE,Water,2
 Node,687,PUMP VARIABLE SPEED 18 OUTLET WATER NODE,Water,1
 Node,688,PIPE ADIABATIC 35 INLET WATER NODE,Water,1
 Node,689,PIPE ADIABATIC 35 OUTLET WATER NODE,Water,1
 Node,690,RES WH|BUILDING UNIT 106 SUPPLY INLET WATER NODE,Water,1
 Node,691,RES WH|BUILDING UNIT 106 SUPPLY OUTLET WATER NODE,Water,1
 Node,692,PIPE ADIABATIC 36 INLET WATER NODE,Water,1
 Node,693,DOMESTIC HOT WATER LOOP|BUILDING UNIT 106 SUPPLY OUTLET NODE,Water,4
 Node,694,DOMESTIC HOT WATER LOOP|BUILDING UNIT 106 DEMAND INLET NODE,Water,2
 Node,695,DOMESTIC HOT WATER LOOP|BUILDING UNIT 106 DEMAND INLET PIPE NODE,Water,1
 Node,696,WATER USE CONNECTIONS 18 INLET WATER NODE,Water,1
 Node,697,WATER USE CONNECTIONS 18 OUTLET WATER NODE,Water,1
 Node,698,DOMESTIC HOT WATER LOOP|BUILDING UNIT 106 DEMAND BYPASS PIPE INLET NODE,Water,1
 Node,699,DOMESTIC HOT WATER LOOP|BUILDING UNIT 106 DEMAND BYPASS PIPE OUTLET NODE,Water,1
 Node,700,DOMESTIC HOT WATER LOOP|BUILDING UNIT 106 DEMAND OUTLET PIPE NODE,Water,1
 Node,701,DOMESTIC HOT WATER LOOP|BUILDING UNIT 106 DEMAND OUTLET NODE,Water,2
 Node,702,DOMESTIC HOT WATER LOOP|BUILDING UNIT 107 SUPPLY INLET NODE,Water,2
 Node,703,PUMP VARIABLE SPEED 19 OUTLET WATER NODE,Water,1
 Node,704,PIPE ADIABATIC 37 INLET WATER NODE,Water,1
 Node,705,PIPE ADIABATIC 37 OUTLET WATER NODE,Water,1
 Node,706,RES WH|BUILDING UNIT 107 SUPPLY INLET WATER NODE,Water,1
 Node,707,RES WH|BUILDING UNIT 107 SUPPLY OUTLET WATER NODE,Water,1
 Node,708,PIPE ADIABATIC 38 INLET WATER NODE,Water,1
 Node,709,DOMESTIC HOT WATER LOOP|BUILDING UNIT 107 SUPPLY OUTLET NODE,Water,4
 Node,710,DOMESTIC HOT WATER LOOP|BUILDING UNIT 107 DEMAND INLET NODE,Water,2
 Node,711,DOMESTIC HOT WATER LOOP|BUILDING UNIT 107 DEMAND INLET PIPE NODE,Water,1
 Node,712,WATER USE CONNECTIONS 19 INLET WATER NODE,Water,1
 Node,713,WATER USE CONNECTIONS 19 OUTLET WATER NODE,Water,1
 Node,714,DOMESTIC HOT WATER LOOP|BUILDING UNIT 107 DEMAND BYPASS PIPE INLET NODE,Water,1
 Node,715,DOMESTIC HOT WATER LOOP|BUILDING UNIT 107 DEMAND BYPASS PIPE OUTLET NODE,Water,1
 Node,716,DOMESTIC HOT WATER LOOP|BUILDING UNIT 107 DEMAND OUTLET PIPE NODE,Water,1
 Node,717,DOMESTIC HOT WATER LOOP|BUILDING UNIT 107 DEMAND OUTLET NODE,Water,2
 Node,718,DOMESTIC HOT WATER LOOP|BUILDING UNIT 108 SUPPLY INLET NODE,Water,2
 Node,719,PUMP VARIABLE SPEED 20 OUTLET WATER NODE,Water,1
 Node,720,PIPE ADIABATIC 39 INLET WATER NODE,Water,1
 Node,721,PIPE ADIABATIC 39 OUTLET WATER NODE,Water,1
 Node,722,RES WH|BUILDING UNIT 108 SUPPLY INLET WATER NODE,Water,1
 Node,723,RES WH|BUILDING UNIT 108 SUPPLY OUTLET WATER NODE,Water,1
 Node,724,PIPE ADIABATIC 40 INLET WATER NODE,Water,1
 Node,725,DOMESTIC HOT WATER LOOP|BUILDING UNIT 108 SUPPLY OUTLET NODE,Water,4
 Node,726,DOMESTIC HOT WATER LOOP|BUILDING UNIT 108 DEMAND INLET NODE,Water,2
 Node,727,DOMESTIC HOT WATER LOOP|BUILDING UNIT 108 DEMAND INLET PIPE NODE,Water,1
 Node,728,WATER USE CONNECTIONS 20 INLET WATER NODE,Water,1
 Node,729,WATER USE CONNECTIONS 20 OUTLET WATER NODE,Water,1
 Node,730,DOMESTIC HOT WATER LOOP|BUILDING UNIT 108 DEMAND BYPASS PIPE INLET NODE,Water,1
 Node,731,DOMESTIC HOT WATER LOOP|BUILDING UNIT 108 DEMAND BYPASS PIPE OUTLET NODE,Water,1
 Node,732,DOMESTIC HOT WATER LOOP|BUILDING UNIT 108 DEMAND OUTLET PIPE NODE,Water,1
 Node,733,DOMESTIC HOT WATER LOOP|BUILDING UNIT 108 DEMAND OUTLET NODE,Water,2
 Node,734,DOMESTIC HOT WATER LOOP|BUILDING UNIT 109 SUPPLY INLET NODE,Water,2
 Node,735,PUMP VARIABLE SPEED 21 OUTLET WATER NODE,Water,1
 Node,736,PIPE ADIABATIC 41 INLET WATER NODE,Water,1
 Node,737,PIPE ADIABATIC 41 OUTLET WATER NODE,Water,1
 Node,738,RES WH|BUILDING UNIT 109 SUPPLY INLET WATER NODE,Water,1
 Node,739,RES WH|BUILDING UNIT 109 SUPPLY OUTLET WATER NODE,Water,1
 Node,740,PIPE ADIABATIC 42 INLET WATER NODE,Water,1
 Node,741,DOMESTIC HOT WATER LOOP|BUILDING UNIT 109 SUPPLY OUTLET NODE,Water,4
 Node,742,DOMESTIC HOT WATER LOOP|BUILDING UNIT 109 DEMAND INLET NODE,Water,2
 Node,743,DOMESTIC HOT WATER LOOP|BUILDING UNIT 109 DEMAND INLET PIPE NODE,Water,1
 Node,744,WATER USE CONNECTIONS 21 INLET WATER NODE,Water,1
 Node,745,WATER USE CONNECTIONS 21 OUTLET WATER NODE,Water,1
 Node,746,DOMESTIC HOT WATER LOOP|BUILDING UNIT 109 DEMAND BYPASS PIPE INLET NODE,Water,1
 Node,747,DOMESTIC HOT WATER LOOP|BUILDING UNIT 109 DEMAND BYPASS PIPE OUTLET NODE,Water,1
 Node,748,DOMESTIC HOT WATER LOOP|BUILDING UNIT 109 DEMAND OUTLET PIPE NODE,Water,1
 Node,749,DOMESTIC HOT WATER LOOP|BUILDING UNIT 109 DEMAND OUTLET NODE,Water,2
 Node,750,DOMESTIC HOT WATER LOOP|BUILDING UNIT 110 SUPPLY INLET NODE,Water,2
 Node,751,PUMP VARIABLE SPEED 22 OUTLET WATER NODE,Water,1
 Node,752,PIPE ADIABATIC 43 INLET WATER NODE,Water,1
 Node,753,PIPE ADIABATIC 43 OUTLET WATER NODE,Water,1
 Node,754,RES WH|BUILDING UNIT 110 SUPPLY INLET WATER NODE,Water,1
 Node,755,RES WH|BUILDING UNIT 110 SUPPLY OUTLET WATER NODE,Water,1
 Node,756,PIPE ADIABATIC 44 INLET WATER NODE,Water,1
 Node,757,DOMESTIC HOT WATER LOOP|BUILDING UNIT 110 SUPPLY OUTLET NODE,Water,4
 Node,758,DOMESTIC HOT WATER LOOP|BUILDING UNIT 110 DEMAND INLET NODE,Water,2
 Node,759,DOMESTIC HOT WATER LOOP|BUILDING UNIT 110 DEMAND INLET PIPE NODE,Water,1
 Node,760,WATER USE CONNECTIONS 22 INLET WATER NODE,Water,1
 Node,761,WATER USE CONNECTIONS 22 OUTLET WATER NODE,Water,1
 Node,762,DOMESTIC HOT WATER LOOP|BUILDING UNIT 110 DEMAND BYPASS PIPE INLET NODE,Water,1
 Node,763,DOMESTIC HOT WATER LOOP|BUILDING UNIT 110 DEMAND BYPASS PIPE OUTLET NODE,Water,1
 Node,764,DOMESTIC HOT WATER LOOP|BUILDING UNIT 110 DEMAND OUTLET PIPE NODE,Water,1
 Node,765,DOMESTIC HOT WATER LOOP|BUILDING UNIT 110 DEMAND OUTLET NODE,Water,2
 Node,766,DOMESTIC HOT WATER LOOP|BUILDING UNIT 111 SUPPLY INLET NODE,Water,2
 Node,767,PUMP VARIABLE SPEED 23 OUTLET WATER NODE,Water,1
 Node,768,PIPE ADIABATIC 45 INLET WATER NODE,Water,1
 Node,769,PIPE ADIABATIC 45 OUTLET WATER NODE,Water,1
 Node,770,RES WH|BUILDING UNIT 111 SUPPLY INLET WATER NODE,Water,1
 Node,771,RES WH|BUILDING UNIT 111 SUPPLY OUTLET WATER NODE,Water,1
 Node,772,PIPE ADIABATIC 46 INLET WATER NODE,Water,1
 Node,773,DOMESTIC HOT WATER LOOP|BUILDING UNIT 111 SUPPLY OUTLET NODE,Water,4
 Node,774,DOMESTIC HOT WATER LOOP|BUILDING UNIT 111 DEMAND INLET NODE,Water,2
 Node,775,DOMESTIC HOT WATER LOOP|BUILDING UNIT 111 DEMAND INLET PIPE NODE,Water,1
 Node,776,WATER USE CONNECTIONS 23 INLET WATER NODE,Water,1
 Node,777,WATER USE CONNECTIONS 23 OUTLET WATER NODE,Water,1
 Node,778,DOMESTIC HOT WATER LOOP|BUILDING UNIT 111 DEMAND BYPASS PIPE INLET NODE,Water,1
 Node,779,DOMESTIC HOT WATER LOOP|BUILDING UNIT 111 DEMAND BYPASS PIPE OUTLET NODE,Water,1
 Node,780,DOMESTIC HOT WATER LOOP|BUILDING UNIT 111 DEMAND OUTLET PIPE NODE,Water,1
 Node,781,DOMESTIC HOT WATER LOOP|BUILDING UNIT 111 DEMAND OUTLET NODE,Water,2
 Node,782,DOMESTIC HOT WATER LOOP|BUILDING UNIT 112 SUPPLY INLET NODE,Water,2
 Node,783,PUMP VARIABLE SPEED 24 OUTLET WATER NODE,Water,1
 Node,784,PIPE ADIABATIC 47 INLET WATER NODE,Water,1
 Node,785,PIPE ADIABATIC 47 OUTLET WATER NODE,Water,1
 Node,786,RES WH|BUILDING UNIT 112 SUPPLY INLET WATER NODE,Water,1
 Node,787,RES WH|BUILDING UNIT 112 SUPPLY OUTLET WATER NODE,Water,1
 Node,788,PIPE ADIABATIC 48 INLET WATER NODE,Water,1
 Node,789,DOMESTIC HOT WATER LOOP|BUILDING UNIT 112 SUPPLY OUTLET NODE,Water,4
 Node,790,DOMESTIC HOT WATER LOOP|BUILDING UNIT 112 DEMAND INLET NODE,Water,2
 Node,791,DOMESTIC HOT WATER LOOP|BUILDING UNIT 112 DEMAND INLET PIPE NODE,Water,1
 Node,792,WATER USE CONNECTIONS 24 INLET WATER NODE,Water,1
 Node,793,WATER USE CONNECTIONS 24 OUTLET WATER NODE,Water,1
 Node,794,DOMESTIC HOT WATER LOOP|BUILDING UNIT 112 DEMAND BYPASS PIPE INLET NODE,Water,1
 Node,795,DOMESTIC HOT WATER LOOP|BUILDING UNIT 112 DEMAND BYPASS PIPE OUTLET NODE,Water,1
 Node,796,DOMESTIC HOT WATER LOOP|BUILDING UNIT 112 DEMAND OUTLET PIPE NODE,Water,1
 Node,797,DOMESTIC HOT WATER LOOP|BUILDING UNIT 112 DEMAND OUTLET NODE,Water,2
 Node,798,DOMESTIC HOT WATER LOOP|BUILDING UNIT 113 SUPPLY INLET NODE,Water,2
 Node,799,PUMP VARIABLE SPEED 25 OUTLET WATER NODE,Water,1
 Node,800,PIPE ADIABATIC 49 INLET WATER NODE,Water,1
 Node,801,PIPE ADIABATIC 49 OUTLET WATER NODE,Water,1
 Node,802,RES WH|BUILDING UNIT 113 SUPPLY INLET WATER NODE,Water,1
 Node,803,RES WH|BUILDING UNIT 113 SUPPLY OUTLET WATER NODE,Water,1
 Node,804,PIPE ADIABATIC 50 INLET WATER NODE,Water,1
 Node,805,DOMESTIC HOT WATER LOOP|BUILDING UNIT 113 SUPPLY OUTLET NODE,Water,4
 Node,806,DOMESTIC HOT WATER LOOP|BUILDING UNIT 113 DEMAND INLET NODE,Water,2
 Node,807,DOMESTIC HOT WATER LOOP|BUILDING UNIT 113 DEMAND INLET PIPE NODE,Water,1
 Node,808,WATER USE CONNECTIONS 25 INLET WATER NODE,Water,1
 Node,809,WATER USE CONNECTIONS 25 OUTLET WATER NODE,Water,1
 Node,810,DOMESTIC HOT WATER LOOP|BUILDING UNIT 113 DEMAND BYPASS PIPE INLET NODE,Water,1
 Node,811,DOMESTIC HOT WATER LOOP|BUILDING UNIT 113 DEMAND BYPASS PIPE OUTLET NODE,Water,1
 Node,812,DOMESTIC HOT WATER LOOP|BUILDING UNIT 113 DEMAND OUTLET PIPE NODE,Water,1
 Node,813,DOMESTIC HOT WATER LOOP|BUILDING UNIT 113 DEMAND OUTLET NODE,Water,2
 Node,814,DOMESTIC HOT WATER LOOP|BUILDING UNIT 114 SUPPLY INLET NODE,Water,2
 Node,815,PUMP VARIABLE SPEED 26 OUTLET WATER NODE,Water,1
 Node,816,PIPE ADIABATIC 51 INLET WATER NODE,Water,1
 Node,817,PIPE ADIABATIC 51 OUTLET WATER NODE,Water,1
 Node,818,RES WH|BUILDING UNIT 114 SUPPLY INLET WATER NODE,Water,1
 Node,819,RES WH|BUILDING UNIT 114 SUPPLY OUTLET WATER NODE,Water,1
 Node,820,PIPE ADIABATIC 52 INLET WATER NODE,Water,1
 Node,821,DOMESTIC HOT WATER LOOP|BUILDING UNIT 114 SUPPLY OUTLET NODE,Water,4
 Node,822,DOMESTIC HOT WATER LOOP|BUILDING UNIT 114 DEMAND INLET NODE,Water,2
 Node,823,DOMESTIC HOT WATER LOOP|BUILDING UNIT 114 DEMAND INLET PIPE NODE,Water,1
 Node,824,WATER USE CONNECTIONS 26 INLET WATER NODE,Water,1
 Node,825,WATER USE CONNECTIONS 26 OUTLET WATER NODE,Water,1
 Node,826,DOMESTIC HOT WATER LOOP|BUILDING UNIT 114 DEMAND BYPASS PIPE INLET NODE,Water,1
 Node,827,DOMESTIC HOT WATER LOOP|BUILDING UNIT 114 DEMAND BYPASS PIPE OUTLET NODE,Water,1
 Node,828,DOMESTIC HOT WATER LOOP|BUILDING UNIT 114 DEMAND OUTLET PIPE NODE,Water,1
 Node,829,DOMESTIC HOT WATER LOOP|BUILDING UNIT 114 DEMAND OUTLET NODE,Water,2
 Node,830,DOMESTIC HOT WATER LOOP|BUILDING UNIT 115 SUPPLY INLET NODE,Water,2
 Node,831,PUMP VARIABLE SPEED 27 OUTLET WATER NODE,Water,1
 Node,832,PIPE ADIABATIC 53 INLET WATER NODE,Water,1
 Node,833,PIPE ADIABATIC 53 OUTLET WATER NODE,Water,1
 Node,834,RES WH|BUILDING UNIT 115 SUPPLY INLET WATER NODE,Water,1
 Node,835,RES WH|BUILDING UNIT 115 SUPPLY OUTLET WATER NODE,Water,1
 Node,836,PIPE ADIABATIC 54 INLET WATER NODE,Water,1
 Node,837,DOMESTIC HOT WATER LOOP|BUILDING UNIT 115 SUPPLY OUTLET NODE,Water,4
 Node,838,DOMESTIC HOT WATER LOOP|BUILDING UNIT 115 DEMAND INLET NODE,Water,2
 Node,839,DOMESTIC HOT WATER LOOP|BUILDING UNIT 115 DEMAND INLET PIPE NODE,Water,1
 Node,840,WATER USE CONNECTIONS 27 INLET WATER NODE,Water,1
 Node,841,WATER USE CONNECTIONS 27 OUTLET WATER NODE,Water,1
 Node,842,DOMESTIC HOT WATER LOOP|BUILDING UNIT 115 DEMAND BYPASS PIPE INLET NODE,Water,1
 Node,843,DOMESTIC HOT WATER LOOP|BUILDING UNIT 115 DEMAND BYPASS PIPE OUTLET NODE,Water,1
 Node,844,DOMESTIC HOT WATER LOOP|BUILDING UNIT 115 DEMAND OUTLET PIPE NODE,Water,1
 Node,845,DOMESTIC HOT WATER LOOP|BUILDING UNIT 115 DEMAND OUTLET NODE,Water,2
 Node,846,DOMESTIC HOT WATER LOOP|BUILDING UNIT 116 SUPPLY INLET NODE,Water,2
 Node,847,PUMP VARIABLE SPEED 28 OUTLET WATER NODE,Water,1
 Node,848,PIPE ADIABATIC 55 INLET WATER NODE,Water,1
 Node,849,PIPE ADIABATIC 55 OUTLET WATER NODE,Water,1
 Node,850,RES WH|BUILDING UNIT 116 SUPPLY INLET WATER NODE,Water,1
 Node,851,RES WH|BUILDING UNIT 116 SUPPLY OUTLET WATER NODE,Water,1
 Node,852,PIPE ADIABATIC 56 INLET WATER NODE,Water,1
 Node,853,DOMESTIC HOT WATER LOOP|BUILDING UNIT 116 SUPPLY OUTLET NODE,Water,4
 Node,854,DOMESTIC HOT WATER LOOP|BUILDING UNIT 116 DEMAND INLET NODE,Water,2
 Node,855,DOMESTIC HOT WATER LOOP|BUILDING UNIT 116 DEMAND INLET PIPE NODE,Water,1
 Node,856,WATER USE CONNECTIONS 28 INLET WATER NODE,Water,1
 Node,857,WATER USE CONNECTIONS 28 OUTLET WATER NODE,Water,1
 Node,858,DOMESTIC HOT WATER LOOP|BUILDING UNIT 116 DEMAND BYPASS PIPE INLET NODE,Water,1
 Node,859,DOMESTIC HOT WATER LOOP|BUILDING UNIT 116 DEMAND BYPASS PIPE OUTLET NODE,Water,1
 Node,860,DOMESTIC HOT WATER LOOP|BUILDING UNIT 116 DEMAND OUTLET PIPE NODE,Water,1
 Node,861,DOMESTIC HOT WATER LOOP|BUILDING UNIT 116 DEMAND OUTLET NODE,Water,2
 Node,862,DOMESTIC HOT WATER LOOP|BUILDING UNIT 117 SUPPLY INLET NODE,Water,2
 Node,863,PUMP VARIABLE SPEED 29 OUTLET WATER NODE,Water,1
 Node,864,PIPE ADIABATIC 57 INLET WATER NODE,Water,1
 Node,865,PIPE ADIABATIC 57 OUTLET WATER NODE,Water,1
 Node,866,RES WH|BUILDING UNIT 117 SUPPLY INLET WATER NODE,Water,1
 Node,867,RES WH|BUILDING UNIT 117 SUPPLY OUTLET WATER NODE,Water,1
 Node,868,PIPE ADIABATIC 58 INLET WATER NODE,Water,1
 Node,869,DOMESTIC HOT WATER LOOP|BUILDING UNIT 117 SUPPLY OUTLET NODE,Water,4
 Node,870,DOMESTIC HOT WATER LOOP|BUILDING UNIT 117 DEMAND INLET NODE,Water,2
 Node,871,DOMESTIC HOT WATER LOOP|BUILDING UNIT 117 DEMAND INLET PIPE NODE,Water,1
 Node,872,WATER USE CONNECTIONS 29 INLET WATER NODE,Water,1
 Node,873,WATER USE CONNECTIONS 29 OUTLET WATER NODE,Water,1
 Node,874,DOMESTIC HOT WATER LOOP|BUILDING UNIT 117 DEMAND BYPASS PIPE INLET NODE,Water,1
 Node,875,DOMESTIC HOT WATER LOOP|BUILDING UNIT 117 DEMAND BYPASS PIPE OUTLET NODE,Water,1
 Node,876,DOMESTIC HOT WATER LOOP|BUILDING UNIT 117 DEMAND OUTLET PIPE NODE,Water,1
 Node,877,DOMESTIC HOT WATER LOOP|BUILDING UNIT 117 DEMAND OUTLET NODE,Water,2
 Node,878,DOMESTIC HOT WATER LOOP|BUILDING UNIT 118 SUPPLY INLET NODE,Water,2
 Node,879,PUMP VARIABLE SPEED 30 OUTLET WATER NODE,Water,1
 Node,880,PIPE ADIABATIC 59 INLET WATER NODE,Water,1
 Node,881,PIPE ADIABATIC 59 OUTLET WATER NODE,Water,1
 Node,882,RES WH|BUILDING UNIT 118 SUPPLY INLET WATER NODE,Water,1
 Node,883,RES WH|BUILDING UNIT 118 SUPPLY OUTLET WATER NODE,Water,1
 Node,884,PIPE ADIABATIC 60 INLET WATER NODE,Water,1
 Node,885,DOMESTIC HOT WATER LOOP|BUILDING UNIT 118 SUPPLY OUTLET NODE,Water,4
 Node,886,DOMESTIC HOT WATER LOOP|BUILDING UNIT 118 DEMAND INLET NODE,Water,2
 Node,887,DOMESTIC HOT WATER LOOP|BUILDING UNIT 118 DEMAND INLET PIPE NODE,Water,1
 Node,888,WATER USE CONNECTIONS 30 INLET WATER NODE,Water,1
 Node,889,WATER USE CONNECTIONS 30 OUTLET WATER NODE,Water,1
 Node,890,DOMESTIC HOT WATER LOOP|BUILDING UNIT 118 DEMAND BYPASS PIPE INLET NODE,Water,1
 Node,891,DOMESTIC HOT WATER LOOP|BUILDING UNIT 118 DEMAND BYPASS PIPE OUTLET NODE,Water,1
 Node,892,DOMESTIC HOT WATER LOOP|BUILDING UNIT 118 DEMAND OUTLET PIPE NODE,Water,1
 Node,893,DOMESTIC HOT WATER LOOP|BUILDING UNIT 118 DEMAND OUTLET NODE,Water,2
 Node,894,DOMESTIC HOT WATER LOOP|BUILDING UNIT 119 SUPPLY INLET NODE,Water,2
 Node,895,PUMP VARIABLE SPEED 31 OUTLET WATER NODE,Water,1
 Node,896,PIPE ADIABATIC 61 INLET WATER NODE,Water,1
 Node,897,PIPE ADIABATIC 61 OUTLET WATER NODE,Water,1
 Node,898,RES WH|BUILDING UNIT 119 SUPPLY INLET WATER NODE,Water,1
 Node,899,RES WH|BUILDING UNIT 119 SUPPLY OUTLET WATER NODE,Water,1
 Node,900,PIPE ADIABATIC 62 INLET WATER NODE,Water,1
 Node,901,DOMESTIC HOT WATER LOOP|BUILDING UNIT 119 SUPPLY OUTLET NODE,Water,4
 Node,902,DOMESTIC HOT WATER LOOP|BUILDING UNIT 119 DEMAND INLET NODE,Water,2
 Node,903,DOMESTIC HOT WATER LOOP|BUILDING UNIT 119 DEMAND INLET PIPE NODE,Water,1
 Node,904,WATER USE CONNECTIONS 31 INLET WATER NODE,Water,1
 Node,905,WATER USE CONNECTIONS 31 OUTLET WATER NODE,Water,1
 Node,906,DOMESTIC HOT WATER LOOP|BUILDING UNIT 119 DEMAND BYPASS PIPE INLET NODE,Water,1
 Node,907,DOMESTIC HOT WATER LOOP|BUILDING UNIT 119 DEMAND BYPASS PIPE OUTLET NODE,Water,1
 Node,908,DOMESTIC HOT WATER LOOP|BUILDING UNIT 119 DEMAND OUTLET PIPE NODE,Water,1
 Node,909,DOMESTIC HOT WATER LOOP|BUILDING UNIT 119 DEMAND OUTLET NODE,Water,2
 Node,910,DOMESTIC HOT WATER LOOP|BUILDING UNIT 120 SUPPLY INLET NODE,Water,2
 Node,911,PUMP VARIABLE SPEED 32 OUTLET WATER NODE,Water,1
 Node,912,PIPE ADIABATIC 63 INLET WATER NODE,Water,1
 Node,913,PIPE ADIABATIC 63 OUTLET WATER NODE,Water,1
 Node,914,RES WH|BUILDING UNIT 120 SUPPLY INLET WATER NODE,Water,1
 Node,915,RES WH|BUILDING UNIT 120 SUPPLY OUTLET WATER NODE,Water,1
 Node,916,PIPE ADIABATIC 64 INLET WATER NODE,Water,1
 Node,917,DOMESTIC HOT WATER LOOP|BUILDING UNIT 120 SUPPLY OUTLET NODE,Water,4
 Node,918,DOMESTIC HOT WATER LOOP|BUILDING UNIT 120 DEMAND INLET NODE,Water,2
 Node,919,DOMESTIC HOT WATER LOOP|BUILDING UNIT 120 DEMAND INLET PIPE NODE,Water,1
 Node,920,WATER USE CONNECTIONS 32 INLET WATER NODE,Water,1
 Node,921,WATER USE CONNECTIONS 32 OUTLET WATER NODE,Water,1
 Node,922,DOMESTIC HOT WATER LOOP|BUILDING UNIT 120 DEMAND BYPASS PIPE INLET NODE,Water,1
 Node,923,DOMESTIC HOT WATER LOOP|BUILDING UNIT 120 DEMAND BYPASS PIPE OUTLET NODE,Water,1
 Node,924,DOMESTIC HOT WATER LOOP|BUILDING UNIT 120 DEMAND OUTLET PIPE NODE,Water,1
 Node,925,DOMESTIC HOT WATER LOOP|BUILDING UNIT 120 DEMAND OUTLET NODE,Water,2
 Node,926,DOMESTIC HOT WATER LOOP|BUILDING UNIT 121 SUPPLY INLET NODE,Water,2
 Node,927,PUMP VARIABLE SPEED 33 OUTLET WATER NODE,Water,1
 Node,928,PIPE ADIABATIC 65 INLET WATER NODE,Water,1
 Node,929,PIPE ADIABATIC 65 OUTLET WATER NODE,Water,1
 Node,930,RES WH|BUILDING UNIT 121 SUPPLY INLET WATER NODE,Water,1
 Node,931,RES WH|BUILDING UNIT 121 SUPPLY OUTLET WATER NODE,Water,1
 Node,932,PIPE ADIABATIC 66 INLET WATER NODE,Water,1
 Node,933,DOMESTIC HOT WATER LOOP|BUILDING UNIT 121 SUPPLY OUTLET NODE,Water,4
 Node,934,DOMESTIC HOT WATER LOOP|BUILDING UNIT 121 DEMAND INLET NODE,Water,2
 Node,935,DOMESTIC HOT WATER LOOP|BUILDING UNIT 121 DEMAND INLET PIPE NODE,Water,1
 Node,936,WATER USE CONNECTIONS 33 INLET WATER NODE,Water,1
 Node,937,WATER USE CONNECTIONS 33 OUTLET WATER NODE,Water,1
 Node,938,DOMESTIC HOT WATER LOOP|BUILDING UNIT 121 DEMAND BYPASS PIPE INLET NODE,Water,1
 Node,939,DOMESTIC HOT WATER LOOP|BUILDING UNIT 121 DEMAND BYPASS PIPE OUTLET NODE,Water,1
 Node,940,DOMESTIC HOT WATER LOOP|BUILDING UNIT 121 DEMAND OUTLET PIPE NODE,Water,1
 Node,941,DOMESTIC HOT WATER LOOP|BUILDING UNIT 121 DEMAND OUTLET NODE,Water,2
 Node,942,DOMESTIC HOT WATER LOOP|BUILDING UNIT 201 SUPPLY INLET NODE,Water,2
 Node,943,PUMP VARIABLE SPEED 34 OUTLET WATER NODE,Water,1
 Node,944,PIPE ADIABATIC 67 INLET WATER NODE,Water,1
 Node,945,PIPE ADIABATIC 67 OUTLET WATER NODE,Water,1
 Node,946,RES WH|BUILDING UNIT 201 SUPPLY INLET WATER NODE,Water,1
 Node,947,RES WH|BUILDING UNIT 201 SUPPLY OUTLET WATER NODE,Water,1
 Node,948,PIPE ADIABATIC 68 INLET WATER NODE,Water,1
 Node,949,DOMESTIC HOT WATER LOOP|BUILDING UNIT 201 SUPPLY OUTLET NODE,Water,4
 Node,950,DOMESTIC HOT WATER LOOP|BUILDING UNIT 201 DEMAND INLET NODE,Water,2
 Node,951,DOMESTIC HOT WATER LOOP|BUILDING UNIT 201 DEMAND INLET PIPE NODE,Water,1
 Node,952,WATER USE CONNECTIONS 34 INLET WATER NODE,Water,1
 Node,953,WATER USE CONNECTIONS 34 OUTLET WATER NODE,Water,1
 Node,954,DOMESTIC HOT WATER LOOP|BUILDING UNIT 201 DEMAND BYPASS PIPE INLET NODE,Water,1
 Node,955,DOMESTIC HOT WATER LOOP|BUILDING UNIT 201 DEMAND BYPASS PIPE OUTLET NODE,Water,1
 Node,956,DOMESTIC HOT WATER LOOP|BUILDING UNIT 201 DEMAND OUTLET PIPE NODE,Water,1
 Node,957,DOMESTIC HOT WATER LOOP|BUILDING UNIT 201 DEMAND OUTLET NODE,Water,2
 Node,958,DOMESTIC HOT WATER LOOP|BUILDING UNIT 202 SUPPLY INLET NODE,Water,2
 Node,959,PUMP VARIABLE SPEED 35 OUTLET WATER NODE,Water,1
 Node,960,PIPE ADIABATIC 69 INLET WATER NODE,Water,1
 Node,961,PIPE ADIABATIC 69 OUTLET WATER NODE,Water,1
 Node,962,RES WH|BUILDING UNIT 202 SUPPLY INLET WATER NODE,Water,1
 Node,963,RES WH|BUILDING UNIT 202 SUPPLY OUTLET WATER NODE,Water,1
 Node,964,PIPE ADIABATIC 70 INLET WATER NODE,Water,1
 Node,965,DOMESTIC HOT WATER LOOP|BUILDING UNIT 202 SUPPLY OUTLET NODE,Water,4
 Node,966,DOMESTIC HOT WATER LOOP|BUILDING UNIT 202 DEMAND INLET NODE,Water,2
 Node,967,DOMESTIC HOT WATER LOOP|BUILDING UNIT 202 DEMAND INLET PIPE NODE,Water,1
 Node,968,WATER USE CONNECTIONS 35 INLET WATER NODE,Water,1
 Node,969,WATER USE CONNECTIONS 35 OUTLET WATER NODE,Water,1
 Node,970,DOMESTIC HOT WATER LOOP|BUILDING UNIT 202 DEMAND BYPASS PIPE INLET NODE,Water,1
 Node,971,DOMESTIC HOT WATER LOOP|BUILDING UNIT 202 DEMAND BYPASS PIPE OUTLET NODE,Water,1
 Node,972,DOMESTIC HOT WATER LOOP|BUILDING UNIT 202 DEMAND OUTLET PIPE NODE,Water,1
 Node,973,DOMESTIC HOT WATER LOOP|BUILDING UNIT 202 DEMAND OUTLET NODE,Water,2
 Node,974,DOMESTIC HOT WATER LOOP|BUILDING UNIT 203 SUPPLY INLET NODE,Water,2
 Node,975,PUMP VARIABLE SPEED 36 OUTLET WATER NODE,Water,1
 Node,976,PIPE ADIABATIC 71 INLET WATER NODE,Water,1
 Node,977,PIPE ADIABATIC 71 OUTLET WATER NODE,Water,1
 Node,978,RES WH|BUILDING UNIT 203 SUPPLY INLET WATER NODE,Water,1
 Node,979,RES WH|BUILDING UNIT 203 SUPPLY OUTLET WATER NODE,Water,1
 Node,980,PIPE ADIABATIC 72 INLET WATER NODE,Water,1
 Node,981,DOMESTIC HOT WATER LOOP|BUILDING UNIT 203 SUPPLY OUTLET NODE,Water,4
 Node,982,DOMESTIC HOT WATER LOOP|BUILDING UNIT 203 DEMAND INLET NODE,Water,2
 Node,983,DOMESTIC HOT WATER LOOP|BUILDING UNIT 203 DEMAND INLET PIPE NODE,Water,1
 Node,984,WATER USE CONNECTIONS 36 INLET WATER NODE,Water,1
 Node,985,WATER USE CONNECTIONS 36 OUTLET WATER NODE,Water,1
 Node,986,DOMESTIC HOT WATER LOOP|BUILDING UNIT 203 DEMAND BYPASS PIPE INLET NODE,Water,1
 Node,987,DOMESTIC HOT WATER LOOP|BUILDING UNIT 203 DEMAND BYPASS PIPE OUTLET NODE,Water,1
 Node,988,DOMESTIC HOT WATER LOOP|BUILDING UNIT 203 DEMAND OUTLET PIPE NODE,Water,1
 Node,989,DOMESTIC HOT WATER LOOP|BUILDING UNIT 203 DEMAND OUTLET NODE,Water,2
 Node,990,DOMESTIC HOT WATER LOOP|BUILDING UNIT 204 SUPPLY INLET NODE,Water,2
 Node,991,PUMP VARIABLE SPEED 37 OUTLET WATER NODE,Water,1
 Node,992,PIPE ADIABATIC 73 INLET WATER NODE,Water,1
 Node,993,PIPE ADIABATIC 73 OUTLET WATER NODE,Water,1
 Node,994,RES WH|BUILDING UNIT 204 SUPPLY INLET WATER NODE,Water,1
 Node,995,RES WH|BUILDING UNIT 204 SUPPLY OUTLET WATER NODE,Water,1
 Node,996,PIPE ADIABATIC 74 INLET WATER NODE,Water,1
 Node,997,DOMESTIC HOT WATER LOOP|BUILDING UNIT 204 SUPPLY OUTLET NODE,Water,4
 Node,998,DOMESTIC HOT WATER LOOP|BUILDING UNIT 204 DEMAND INLET NODE,Water,2
 Node,999,DOMESTIC HOT WATER LOOP|BUILDING UNIT 204 DEMAND INLET PIPE NODE,Water,1
 Node,1000,WATER USE CONNECTIONS 37 INLET WATER NODE,Water,1
 Node,1001,WATER USE CONNECTIONS 37 OUTLET WATER NODE,Water,1
 Node,1002,DOMESTIC HOT WATER LOOP|BUILDING UNIT 204 DEMAND BYPASS PIPE INLET NODE,Water,1
 Node,1003,DOMESTIC HOT WATER LOOP|BUILDING UNIT 204 DEMAND BYPASS PIPE OUTLET NODE,Water,1
 Node,1004,DOMESTIC HOT WATER LOOP|BUILDING UNIT 204 DEMAND OUTLET PIPE NODE,Water,1
 Node,1005,DOMESTIC HOT WATER LOOP|BUILDING UNIT 204 DEMAND OUTLET NODE,Water,2
 Node,1006,DOMESTIC HOT WATER LOOP|BUILDING UNIT 205 SUPPLY INLET NODE,Water,2
 Node,1007,PUMP VARIABLE SPEED 38 OUTLET WATER NODE,Water,1
 Node,1008,PIPE ADIABATIC 75 INLET WATER NODE,Water,1
 Node,1009,PIPE ADIABATIC 75 OUTLET WATER NODE,Water,1
 Node,1010,RES WH|BUILDING UNIT 205 SUPPLY INLET WATER NODE,Water,1
 Node,1011,RES WH|BUILDING UNIT 205 SUPPLY OUTLET WATER NODE,Water,1
 Node,1012,PIPE ADIABATIC 76 INLET WATER NODE,Water,1
 Node,1013,DOMESTIC HOT WATER LOOP|BUILDING UNIT 205 SUPPLY OUTLET NODE,Water,4
 Node,1014,DOMESTIC HOT WATER LOOP|BUILDING UNIT 205 DEMAND INLET NODE,Water,2
 Node,1015,DOMESTIC HOT WATER LOOP|BUILDING UNIT 205 DEMAND INLET PIPE NODE,Water,1
 Node,1016,WATER USE CONNECTIONS 38 INLET WATER NODE,Water,1
 Node,1017,WATER USE CONNECTIONS 38 OUTLET WATER NODE,Water,1
 Node,1018,DOMESTIC HOT WATER LOOP|BUILDING UNIT 205 DEMAND BYPASS PIPE INLET NODE,Water,1
 Node,1019,DOMESTIC HOT WATER LOOP|BUILDING UNIT 205 DEMAND BYPASS PIPE OUTLET NODE,Water,1
 Node,1020,DOMESTIC HOT WATER LOOP|BUILDING UNIT 205 DEMAND OUTLET PIPE NODE,Water,1
 Node,1021,DOMESTIC HOT WATER LOOP|BUILDING UNIT 205 DEMAND OUTLET NODE,Water,2
 Node,1022,DOMESTIC HOT WATER LOOP|BUILDING UNIT 206 SUPPLY INLET NODE,Water,2
 Node,1023,PUMP VARIABLE SPEED 39 OUTLET WATER NODE,Water,1
 Node,1024,PIPE ADIABATIC 77 INLET WATER NODE,Water,1
 Node,1025,PIPE ADIABATIC 77 OUTLET WATER NODE,Water,1
 Node,1026,RES WH|BUILDING UNIT 206 SUPPLY INLET WATER NODE,Water,1
 Node,1027,RES WH|BUILDING UNIT 206 SUPPLY OUTLET WATER NODE,Water,1
 Node,1028,PIPE ADIABATIC 78 INLET WATER NODE,Water,1
 Node,1029,DOMESTIC HOT WATER LOOP|BUILDING UNIT 206 SUPPLY OUTLET NODE,Water,4
 Node,1030,DOMESTIC HOT WATER LOOP|BUILDING UNIT 206 DEMAND INLET NODE,Water,2
 Node,1031,DOMESTIC HOT WATER LOOP|BUILDING UNIT 206 DEMAND INLET PIPE NODE,Water,1
 Node,1032,WATER USE CONNECTIONS 39 INLET WATER NODE,Water,1
 Node,1033,WATER USE CONNECTIONS 39 OUTLET WATER NODE,Water,1
 Node,1034,DOMESTIC HOT WATER LOOP|BUILDING UNIT 206 DEMAND BYPASS PIPE INLET NODE,Water,1
 Node,1035,DOMESTIC HOT WATER LOOP|BUILDING UNIT 206 DEMAND BYPASS PIPE OUTLET NODE,Water,1
 Node,1036,DOMESTIC HOT WATER LOOP|BUILDING UNIT 206 DEMAND OUTLET PIPE NODE,Water,1
 Node,1037,DOMESTIC HOT WATER LOOP|BUILDING UNIT 206 DEMAND OUTLET NODE,Water,2
 Node,1038,DOMESTIC HOT WATER LOOP|BUILDING UNIT 207 SUPPLY INLET NODE,Water,2
 Node,1039,PUMP VARIABLE SPEED 40 OUTLET WATER NODE,Water,1
 Node,1040,PIPE ADIABATIC 79 INLET WATER NODE,Water,1
 Node,1041,PIPE ADIABATIC 79 OUTLET WATER NODE,Water,1
 Node,1042,RES WH|BUILDING UNIT 207 SUPPLY INLET WATER NODE,Water,1
 Node,1043,RES WH|BUILDING UNIT 207 SUPPLY OUTLET WATER NODE,Water,1
 Node,1044,PIPE ADIABATIC 80 INLET WATER NODE,Water,1
 Node,1045,DOMESTIC HOT WATER LOOP|BUILDING UNIT 207 SUPPLY OUTLET NODE,Water,4
 Node,1046,DOMESTIC HOT WATER LOOP|BUILDING UNIT 207 DEMAND INLET NODE,Water,2
 Node,1047,DOMESTIC HOT WATER LOOP|BUILDING UNIT 207 DEMAND INLET PIPE NODE,Water,1
 Node,1048,WATER USE CONNECTIONS 40 INLET WATER NODE,Water,1
 Node,1049,WATER USE CONNECTIONS 40 OUTLET WATER NODE,Water,1
 Node,1050,DOMESTIC HOT WATER LOOP|BUILDING UNIT 207 DEMAND BYPASS PIPE INLET NODE,Water,1
 Node,1051,DOMESTIC HOT WATER LOOP|BUILDING UNIT 207 DEMAND BYPASS PIPE OUTLET NODE,Water,1
 Node,1052,DOMESTIC HOT WATER LOOP|BUILDING UNIT 207 DEMAND OUTLET PIPE NODE,Water,1
 Node,1053,DOMESTIC HOT WATER LOOP|BUILDING UNIT 207 DEMAND OUTLET NODE,Water,2
 Node,1054,DOMESTIC HOT WATER LOOP|BUILDING UNIT 208 SUPPLY INLET NODE,Water,2
 Node,1055,PUMP VARIABLE SPEED 41 OUTLET WATER NODE,Water,1
 Node,1056,PIPE ADIABATIC 81 INLET WATER NODE,Water,1
 Node,1057,PIPE ADIABATIC 81 OUTLET WATER NODE,Water,1
 Node,1058,RES WH|BUILDING UNIT 208 SUPPLY INLET WATER NODE,Water,1
 Node,1059,RES WH|BUILDING UNIT 208 SUPPLY OUTLET WATER NODE,Water,1
 Node,1060,PIPE ADIABATIC 82 INLET WATER NODE,Water,1
 Node,1061,DOMESTIC HOT WATER LOOP|BUILDING UNIT 208 SUPPLY OUTLET NODE,Water,4
 Node,1062,DOMESTIC HOT WATER LOOP|BUILDING UNIT 208 DEMAND INLET NODE,Water,2
 Node,1063,DOMESTIC HOT WATER LOOP|BUILDING UNIT 208 DEMAND INLET PIPE NODE,Water,1
 Node,1064,WATER USE CONNECTIONS 41 INLET WATER NODE,Water,1
 Node,1065,WATER USE CONNECTIONS 41 OUTLET WATER NODE,Water,1
 Node,1066,DOMESTIC HOT WATER LOOP|BUILDING UNIT 208 DEMAND BYPASS PIPE INLET NODE,Water,1
 Node,1067,DOMESTIC HOT WATER LOOP|BUILDING UNIT 208 DEMAND BYPASS PIPE OUTLET NODE,Water,1
 Node,1068,DOMESTIC HOT WATER LOOP|BUILDING UNIT 208 DEMAND OUTLET PIPE NODE,Water,1
 Node,1069,DOMESTIC HOT WATER LOOP|BUILDING UNIT 208 DEMAND OUTLET NODE,Water,2
 Node,1070,DOMESTIC HOT WATER LOOP|BUILDING UNIT 209 SUPPLY INLET NODE,Water,2
 Node,1071,PUMP VARIABLE SPEED 42 OUTLET WATER NODE,Water,1
 Node,1072,PIPE ADIABATIC 83 INLET WATER NODE,Water,1
 Node,1073,PIPE ADIABATIC 83 OUTLET WATER NODE,Water,1
 Node,1074,RES WH|BUILDING UNIT 209 SUPPLY INLET WATER NODE,Water,1
 Node,1075,RES WH|BUILDING UNIT 209 SUPPLY OUTLET WATER NODE,Water,1
 Node,1076,PIPE ADIABATIC 84 INLET WATER NODE,Water,1
 Node,1077,DOMESTIC HOT WATER LOOP|BUILDING UNIT 209 SUPPLY OUTLET NODE,Water,4
 Node,1078,DOMESTIC HOT WATER LOOP|BUILDING UNIT 209 DEMAND INLET NODE,Water,2
 Node,1079,DOMESTIC HOT WATER LOOP|BUILDING UNIT 209 DEMAND INLET PIPE NODE,Water,1
 Node,1080,WATER USE CONNECTIONS 42 INLET WATER NODE,Water,1
 Node,1081,WATER USE CONNECTIONS 42 OUTLET WATER NODE,Water,1
 Node,1082,DOMESTIC HOT WATER LOOP|BUILDING UNIT 209 DEMAND BYPASS PIPE INLET NODE,Water,1
 Node,1083,DOMESTIC HOT WATER LOOP|BUILDING UNIT 209 DEMAND BYPASS PIPE OUTLET NODE,Water,1
 Node,1084,DOMESTIC HOT WATER LOOP|BUILDING UNIT 209 DEMAND OUTLET PIPE NODE,Water,1
 Node,1085,DOMESTIC HOT WATER LOOP|BUILDING UNIT 209 DEMAND OUTLET NODE,Water,2
 Node,1086,DOMESTIC HOT WATER LOOP|BUILDING UNIT 301 SUPPLY INLET NODE,Water,2
 Node,1087,PUMP VARIABLE SPEED 43 OUTLET WATER NODE,Water,1
 Node,1088,PIPE ADIABATIC 85 INLET WATER NODE,Water,1
 Node,1089,PIPE ADIABATIC 85 OUTLET WATER NODE,Water,1
 Node,1090,RES WH|BUILDING UNIT 301 SUPPLY INLET WATER NODE,Water,1
 Node,1091,RES WH|BUILDING UNIT 301 SUPPLY OUTLET WATER NODE,Water,1
 Node,1092,PIPE ADIABATIC 86 INLET WATER NODE,Water,1
 Node,1093,DOMESTIC HOT WATER LOOP|BUILDING UNIT 301 SUPPLY OUTLET NODE,Water,4
 Node,1094,DOMESTIC HOT WATER LOOP|BUILDING UNIT 301 DEMAND INLET NODE,Water,2
 Node,1095,DOMESTIC HOT WATER LOOP|BUILDING UNIT 301 DEMAND INLET PIPE NODE,Water,1
 Node,1096,WATER USE CONNECTIONS 43 INLET WATER NODE,Water,1
 Node,1097,WATER USE CONNECTIONS 43 OUTLET WATER NODE,Water,1
 Node,1098,DOMESTIC HOT WATER LOOP|BUILDING UNIT 301 DEMAND BYPASS PIPE INLET NODE,Water,1
 Node,1099,DOMESTIC HOT WATER LOOP|BUILDING UNIT 301 DEMAND BYPASS PIPE OUTLET NODE,Water,1
 Node,1100,DOMESTIC HOT WATER LOOP|BUILDING UNIT 301 DEMAND OUTLET PIPE NODE,Water,1
 Node,1101,DOMESTIC HOT WATER LOOP|BUILDING UNIT 301 DEMAND OUTLET NODE,Water,2
 Node,1102,DOMESTIC HOT WATER LOOP|BUILDING UNIT 302 SUPPLY INLET NODE,Water,2
 Node,1103,PUMP VARIABLE SPEED 44 OUTLET WATER NODE,Water,1
 Node,1104,PIPE ADIABATIC 87 INLET WATER NODE,Water,1
 Node,1105,PIPE ADIABATIC 87 OUTLET WATER NODE,Water,1
 Node,1106,RES WH|BUILDING UNIT 302 SUPPLY INLET WATER NODE,Water,1
 Node,1107,RES WH|BUILDING UNIT 302 SUPPLY OUTLET WATER NODE,Water,1
 Node,1108,PIPE ADIABATIC 88 INLET WATER NODE,Water,1
 Node,1109,DOMESTIC HOT WATER LOOP|BUILDING UNIT 302 SUPPLY OUTLET NODE,Water,4
 Node,1110,DOMESTIC HOT WATER LOOP|BUILDING UNIT 302 DEMAND INLET NODE,Water,2
 Node,1111,DOMESTIC HOT WATER LOOP|BUILDING UNIT 302 DEMAND INLET PIPE NODE,Water,1
 Node,1112,WATER USE CONNECTIONS 44 INLET WATER NODE,Water,1
 Node,1113,WATER USE CONNECTIONS 44 OUTLET WATER NODE,Water,1
 Node,1114,DOMESTIC HOT WATER LOOP|BUILDING UNIT 302 DEMAND BYPASS PIPE INLET NODE,Water,1
 Node,1115,DOMESTIC HOT WATER LOOP|BUILDING UNIT 302 DEMAND BYPASS PIPE OUTLET NODE,Water,1
 Node,1116,DOMESTIC HOT WATER LOOP|BUILDING UNIT 302 DEMAND OUTLET PIPE NODE,Water,1
 Node,1117,DOMESTIC HOT WATER LOOP|BUILDING UNIT 302 DEMAND OUTLET NODE,Water,2
 Node,1118,DOMESTIC HOT WATER LOOP|BUILDING UNIT 303 SUPPLY INLET NODE,Water,2
 Node,1119,PUMP VARIABLE SPEED 45 OUTLET WATER NODE,Water,1
 Node,1120,PIPE ADIABATIC 89 INLET WATER NODE,Water,1
 Node,1121,PIPE ADIABATIC 89 OUTLET WATER NODE,Water,1
 Node,1122,RES WH|BUILDING UNIT 303 SUPPLY INLET WATER NODE,Water,1
 Node,1123,RES WH|BUILDING UNIT 303 SUPPLY OUTLET WATER NODE,Water,1
 Node,1124,PIPE ADIABATIC 90 INLET WATER NODE,Water,1
 Node,1125,DOMESTIC HOT WATER LOOP|BUILDING UNIT 303 SUPPLY OUTLET NODE,Water,4
 Node,1126,DOMESTIC HOT WATER LOOP|BUILDING UNIT 303 DEMAND INLET NODE,Water,2
 Node,1127,DOMESTIC HOT WATER LOOP|BUILDING UNIT 303 DEMAND INLET PIPE NODE,Water,1
 Node,1128,WATER USE CONNECTIONS 45 INLET WATER NODE,Water,1
 Node,1129,WATER USE CONNECTIONS 45 OUTLET WATER NODE,Water,1
 Node,1130,DOMESTIC HOT WATER LOOP|BUILDING UNIT 303 DEMAND BYPASS PIPE INLET NODE,Water,1
 Node,1131,DOMESTIC HOT WATER LOOP|BUILDING UNIT 303 DEMAND BYPASS PIPE OUTLET NODE,Water,1
 Node,1132,DOMESTIC HOT WATER LOOP|BUILDING UNIT 303 DEMAND OUTLET PIPE NODE,Water,1
 Node,1133,DOMESTIC HOT WATER LOOP|BUILDING UNIT 303 DEMAND OUTLET NODE,Water,2
 Node,1134,0_BDRM_1_2 ZONE AIR NODE,Air,0
 Node,1135,0_BDRM_1_3 ZONE AIR NODE,Air,0
 Node,1136,0_BDRM_1_4 ZONE AIR NODE,Air,0
 Node,1137,0_BDRM_2_2 ZONE AIR NODE,Air,0
 Node,1138,0_BDRM_2_3 ZONE AIR NODE,Air,0
 Node,1139,0_BDRM_2_4 ZONE AIR NODE,Air,0
 Node,1140,0_BDRM_3_2 ZONE AIR NODE,Air,0
 Node,1141,0_BDRM_3_3 ZONE AIR NODE,Air,0
 Node,1142,0_BDRM_3_4 ZONE AIR NODE,Air,0
 Node,1143,0_BDRM_4_2 ZONE AIR NODE,Air,0
 Node,1144,0_BDRM_4_3 ZONE AIR NODE,Air,0
 Node,1145,0_BDRM_4_4 ZONE AIR NODE,Air,0
 Node,1146,1_BDRM_1_2 ZONE AIR NODE,Air,0
 Node,1147,1_BDRM_1_3 ZONE AIR NODE,Air,0
 Node,1148,1_BDRM_1_4 ZONE AIR NODE,Air,0
 Node,1149,1_BDRM_2_2 ZONE AIR NODE,Air,0
 Node,1150,1_BDRM_2_3 ZONE AIR NODE,Air,0
 Node,1151,1_BDRM_2_4 ZONE AIR NODE,Air,0
 Node,1152,1_BDRM_3_2 ZONE AIR NODE,Air,0
 Node,1153,1_BDRM_3_3 ZONE AIR NODE,Air,0
 Node,1154,1_BDRM_3_4 ZONE AIR NODE,Air,0
 Node,1155,1_BDRM_4_2 ZONE AIR NODE,Air,0
 Node,1156,1_BDRM_4_3 ZONE AIR NODE,Air,0
 Node,1157,1_BDRM_4_4 ZONE AIR NODE,Air,0
 Node,1158,1_BDRM_5_2 ZONE AIR NODE,Air,0
 Node,1159,1_BDRM_5_3 ZONE AIR NODE,Air,0
 Node,1160,1_BDRM_5_4 ZONE AIR NODE,Air,0
 Node,1161,1_BDRM_6_2 ZONE AIR NODE,Air,0
 Node,1162,1_BDRM_6_3 ZONE AIR NODE,Air,0
 Node,1163,1_BDRM_6_4 ZONE AIR NODE,Air,0
 Node,1164,1_BDRM_7_2 ZONE AIR NODE,Air,0
 Node,1165,1_BDRM_7_3 ZONE AIR NODE,Air,0
 Node,1166,1_BDRM_7_4 ZONE AIR NODE,Air,0
 Node,1167,2_BDRM_1_2 ZONE AIR NODE,Air,0
 Node,1168,2_BDRM_1_3 ZONE AIR NODE,Air,0
 Node,1169,2_BDRM_1_4 ZONE AIR NODE,Air,0
 Node,1170,2_BDRM_2_2 ZONE AIR NODE,Air,0
 Node,1171,2_BDRM_2_3 ZONE AIR NODE,Air,0
 Node,1172,2_BDRM_2_4 ZONE AIR NODE,Air,0
 Node,1173,2_BDRM_3_2 ZONE AIR NODE,Air,0
 Node,1174,2_BDRM_3_3 ZONE AIR NODE,Air,0
 Node,1175,2_BDRM_3_4 ZONE AIR NODE,Air,0
 Node,1176,3_BDRM_1_3 ZONE AIR NODE,Air,0
 Node,1177,3_BDRM_1_4 ZONE AIR NODE,Air,0
 Node,1178,3_BDRM_2_2 ZONE AIR NODE,Air,0
 Node,1179,BATHRM_1 ZONE AIR NODE,Air,0
 Node,1180,BATHRM_2 ZONE AIR NODE,Air,0
 Node,1181,COFFEE_SHOP ZONE AIR NODE,Air,0
 Node,1182,COMMUNITY_RM ZONE AIR NODE,Air,0
 Node,1183,CORRIDOR ZONE AIR NODE,Air,0
 Node,1184,CORRIDOR_2 ZONE AIR NODE,Air,0
 Node,1185,CORRIDOR_3 ZONE AIR NODE,Air,0
 Node,1186,CORRIDOR_4 ZONE AIR NODE,Air,0
 Node,1187,GYM 1 ZONE AIR NODE,Air,0
 Node,1188,LT_RETAIL_1 ZONE AIR NODE,Air,0
 Node,1189,LT_RETAIL_2 ZONE AIR NODE,Air,0
 Node,1190,LT_RETAIL_3 ZONE AIR NODE,Air,0
 Node,1191,LT_RETAIL_4 ZONE AIR NODE,Air,0
 Node,1192,OFFICE 1 ZONE AIR NODE,Air,0
 Node,1193,0_BDRM_1_2 CENTRAL AIR SOURCE HP DEMAND OUTLET NODE,Air,2
 Node,1194,0_BDRM_1_3 CENTRAL AIR SOURCE HP DEMAND OUTLET NODE,Air,2
 Node,1195,0_BDRM_1_4 CENTRAL AIR SOURCE HP DEMAND OUTLET NODE,Air,2
 Node,1196,0_BDRM_2_2 CENTRAL AIR SOURCE HP DEMAND OUTLET NODE,Air,2
 Node,1197,0_BDRM_2_3 CENTRAL AIR SOURCE HP DEMAND OUTLET NODE,Air,2
 Node,1198,0_BDRM_2_4 CENTRAL AIR SOURCE HP DEMAND OUTLET NODE,Air,2
 Node,1199,0_BDRM_3_2 CENTRAL AIR SOURCE HP DEMAND OUTLET NODE,Air,2
 Node,1200,0_BDRM_3_3 CENTRAL AIR SOURCE HP DEMAND OUTLET NODE,Air,2
 Node,1201,0_BDRM_3_4 CENTRAL AIR SOURCE HP DEMAND OUTLET NODE,Air,2
 Node,1202,0_BDRM_4_2 CENTRAL AIR SOURCE HP DEMAND OUTLET NODE,Air,2
 Node,1203,0_BDRM_4_3 CENTRAL AIR SOURCE HP DEMAND OUTLET NODE,Air,2
 Node,1204,0_BDRM_4_4 CENTRAL AIR SOURCE HP DEMAND OUTLET NODE,Air,2
 Node,1205,1_BDRM_1_2 CENTRAL AIR SOURCE HP DEMAND OUTLET NODE,Air,2
 Node,1206,1_BDRM_1_3 CENTRAL AIR SOURCE HP DEMAND OUTLET NODE,Air,2
 Node,1207,1_BDRM_1_4 CENTRAL AIR SOURCE HP DEMAND OUTLET NODE,Air,2
 Node,1208,1_BDRM_2_2 CENTRAL AIR SOURCE HP DEMAND OUTLET NODE,Air,2
 Node,1209,1_BDRM_2_3 CENTRAL AIR SOURCE HP DEMAND OUTLET NODE,Air,2
 Node,1210,1_BDRM_2_4 CENTRAL AIR SOURCE HP DEMAND OUTLET NODE,Air,2
 Node,1211,1_BDRM_3_2 CENTRAL AIR SOURCE HP DEMAND OUTLET NODE,Air,2
 Node,1212,1_BDRM_3_3 CENTRAL AIR SOURCE HP DEMAND OUTLET NODE,Air,2
 Node,1213,1_BDRM_3_4 CENTRAL AIR SOURCE HP DEMAND OUTLET NODE,Air,2
 Node,1214,1_BDRM_4_2 CENTRAL AIR SOURCE HP DEMAND OUTLET NODE,Air,2
 Node,1215,1_BDRM_4_3 CENTRAL AIR SOURCE HP DEMAND OUTLET NODE,Air,2
 Node,1216,1_BDRM_4_4 CENTRAL AIR SOURCE HP DEMAND OUTLET NODE,Air,2
 Node,1217,1_BDRM_5_2 CENTRAL AIR SOURCE HP DEMAND OUTLET NODE,Air,2
 Node,1218,1_BDRM_5_3 CENTRAL AIR SOURCE HP DEMAND OUTLET NODE,Air,2
 Node,1219,1_BDRM_5_4 CENTRAL AIR SOURCE HP DEMAND OUTLET NODE,Air,2
 Node,1220,1_BDRM_6_2 CENTRAL AIR SOURCE HP DEMAND OUTLET NODE,Air,2
 Node,1221,1_BDRM_6_3 CENTRAL AIR SOURCE HP DEMAND OUTLET NODE,Air,2
 Node,1222,1_BDRM_6_4 CENTRAL AIR SOURCE HP DEMAND OUTLET NODE,Air,2
 Node,1223,1_BDRM_7_2 CENTRAL AIR SOURCE HP DEMAND OUTLET NODE,Air,2
 Node,1224,1_BDRM_7_3 CENTRAL AIR SOURCE HP DEMAND OUTLET NODE,Air,2
 Node,1225,1_BDRM_7_4 CENTRAL AIR SOURCE HP DEMAND OUTLET NODE,Air,2
 Node,1226,2_BDRM_1_2 CENTRAL AIR SOURCE HP DEMAND OUTLET NODE,Air,2
 Node,1227,2_BDRM_1_3 CENTRAL AIR SOURCE HP DEMAND OUTLET NODE,Air,2
 Node,1228,2_BDRM_1_4 CENTRAL AIR SOURCE HP DEMAND OUTLET NODE,Air,2
 Node,1229,2_BDRM_2_2 CENTRAL AIR SOURCE HP DEMAND OUTLET NODE,Air,2
 Node,1230,2_BDRM_2_3 CENTRAL AIR SOURCE HP DEMAND OUTLET NODE,Air,2
[...]
 Non-Parent Node Connection,2_BDRM_2_2 CENTRAL AIR SOURCE HP UNITARY SYSTEM HEATING COIL - SUPPLEMENTAL COIL NODE,COIL:HEATING:ELECTRIC,2_BDRM_2_2 CENTRAL AIR SOURCE HP SUPPLEMENTAL HTG COIL,Inlet,1
 Non-Parent Node Connection,2_BDRM_2_2 CENTRAL AIR SOURCE HP SUPPLY OUTLET NODE,COIL:HEATING:ELECTRIC,2_BDRM_2_2 CENTRAL AIR SOURCE HP SUPPLEMENTAL HTG COIL,Outlet,1
 Non-Parent Node Connection,2_BDRM_2_3 CENTRAL AIR SOURCE HP UNITARY SYSTEM HEATING COIL - SUPPLEMENTAL COIL NODE,COIL:HEATING:ELECTRIC,2_BDRM_2_3 CENTRAL AIR SOURCE HP SUPPLEMENTAL HTG COIL,Inlet,1
 Non-Parent Node Connection,2_BDRM_2_3 CENTRAL AIR SOURCE HP SUPPLY OUTLET NODE,COIL:HEATING:ELECTRIC,2_BDRM_2_3 CENTRAL AIR SOURCE HP SUPPLEMENTAL HTG COIL,Outlet,1
 Non-Parent Node Connection,2_BDRM_2_4 CENTRAL AIR SOURCE HP UNITARY SYSTEM HEATING COIL - SUPPLEMENTAL COIL NODE,COIL:HEATING:ELECTRIC,2_BDRM_2_4 CENTRAL AIR SOURCE HP SUPPLEMENTAL HTG COIL,Inlet,1
 Non-Parent Node Connection,2_BDRM_2_4 CENTRAL AIR SOURCE HP SUPPLY OUTLET NODE,COIL:HEATING:ELECTRIC,2_BDRM_2_4 CENTRAL AIR SOURCE HP SUPPLEMENTAL HTG COIL,Outlet,1
 Non-Parent Node Connection,2_BDRM_3_2 CENTRAL AIR SOURCE HP UNITARY SYSTEM HEATING COIL - SUPPLEMENTAL COIL NODE,COIL:HEATING:ELECTRIC,2_BDRM_3_2 CENTRAL AIR SOURCE HP SUPPLEMENTAL HTG COIL,Inlet,1
 Non-Parent Node Connection,2_BDRM_3_2 CENTRAL AIR SOURCE HP SUPPLY OUTLET NODE,COIL:HEATING:ELECTRIC,2_BDRM_3_2 CENTRAL AIR SOURCE HP SUPPLEMENTAL HTG COIL,Outlet,1
 Non-Parent Node Connection,2_BDRM_3_3 CENTRAL AIR SOURCE HP UNITARY SYSTEM HEATING COIL - SUPPLEMENTAL COIL NODE,COIL:HEATING:ELECTRIC,2_BDRM_3_3 CENTRAL AIR SOURCE HP SUPPLEMENTAL HTG COIL,Inlet,1
 Non-Parent Node Connection,2_BDRM_3_3 CENTRAL AIR SOURCE HP SUPPLY OUTLET NODE,COIL:HEATING:ELECTRIC,2_BDRM_3_3 CENTRAL AIR SOURCE HP SUPPLEMENTAL HTG COIL,Outlet,1
 Non-Parent Node Connection,2_BDRM_3_4 CENTRAL AIR SOURCE HP UNITARY SYSTEM HEATING COIL - SUPPLEMENTAL COIL NODE,COIL:HEATING:ELECTRIC,2_BDRM_3_4 CENTRAL AIR SOURCE HP SUPPLEMENTAL HTG COIL,Inlet,1
 Non-Parent Node Connection,2_BDRM_3_4 CENTRAL AIR SOURCE HP SUPPLY OUTLET NODE,COIL:HEATING:ELECTRIC,2_BDRM_3_4 CENTRAL AIR SOURCE HP SUPPLEMENTAL HTG COIL,Outlet,1
 Non-Parent Node Connection,3_BDRM_1_3 CENTRAL AIR SOURCE HP UNITARY SYSTEM HEATING COIL - SUPPLEMENTAL COIL NODE,COIL:HEATING:ELECTRIC,3_BDRM_1_3 CENTRAL AIR SOURCE HP SUPPLEMENTAL HTG COIL,Inlet,1
 Non-Parent Node Connection,3_BDRM_1_3 CENTRAL AIR SOURCE HP SUPPLY OUTLET NODE,COIL:HEATING:ELECTRIC,3_BDRM_1_3 CENTRAL AIR SOURCE HP SUPPLEMENTAL HTG COIL,Outlet,1
 Non-Parent Node Connection,3_BDRM_1_4 CENTRAL AIR SOURCE HP UNITARY SYSTEM HEATING COIL - SUPPLEMENTAL COIL NODE,COIL:HEATING:ELECTRIC,3_BDRM_1_4 CENTRAL AIR SOURCE HP SUPPLEMENTAL HTG COIL,Inlet,1
 Non-Parent Node Connection,3_BDRM_1_4 CENTRAL AIR SOURCE HP SUPPLY OUTLET NODE,COIL:HEATING:ELECTRIC,3_BDRM_1_4 CENTRAL AIR SOURCE HP SUPPLEMENTAL HTG COIL,Outlet,1
 Non-Parent Node Connection,3_BDRM_2_2 CENTRAL AIR SOURCE HP UNITARY SYSTEM HEATING COIL - SUPPLEMENTAL COIL NODE,COIL:HEATING:ELECTRIC,3_BDRM_2_2 CENTRAL AIR SOURCE HP SUPPLEMENTAL HTG COIL,Inlet,1
 Non-Parent Node Connection,3_BDRM_2_2 CENTRAL AIR SOURCE HP SUPPLY OUTLET NODE,COIL:HEATING:ELECTRIC,3_BDRM_2_2 CENTRAL AIR SOURCE HP SUPPLEMENTAL HTG COIL,Outlet,1
 Non-Parent Node Connection,BATHRM_1 CENTRAL AIR SOURCE HP UNITARY SYSTEM HEATING COIL - SUPPLEMENTAL COIL NODE,COIL:HEATING:ELECTRIC,BATHRM_1 CENTRAL AIR SOURCE HP SUPPLEMENTAL HTG COIL,Inlet,1
 Non-Parent Node Connection,BATHRM_1 CENTRAL AIR SOURCE HP SUPPLY OUTLET NODE,COIL:HEATING:ELECTRIC,BATHRM_1 CENTRAL AIR SOURCE HP SUPPLEMENTAL HTG COIL,Outlet,1
 Non-Parent Node Connection,BATHRM_2 CENTRAL AIR SOURCE HP UNITARY SYSTEM HEATING COIL - SUPPLEMENTAL COIL NODE,COIL:HEATING:ELECTRIC,BATHRM_2 CENTRAL AIR SOURCE HP SUPPLEMENTAL HTG COIL,Inlet,1
 Non-Parent Node Connection,BATHRM_2 CENTRAL AIR SOURCE HP SUPPLY OUTLET NODE,COIL:HEATING:ELECTRIC,BATHRM_2 CENTRAL AIR SOURCE HP SUPPLEMENTAL HTG COIL,Outlet,1
 Non-Parent Node Connection,COFFEE_SHOP CENTRAL AIR SOURCE HP UNITARY SYSTEM HEATING COIL - SUPPLEMENTAL COIL NODE,COIL:HEATING:ELECTRIC,COFFEE_SHOP CENTRAL AIR SOURCE HP SUPPLEMENTAL HTG COIL,Inlet,1
 Non-Parent Node Connection,COFFEE_SHOP CENTRAL AIR SOURCE HP SUPPLY OUTLET NODE,COIL:HEATING:ELECTRIC,COFFEE_SHOP CENTRAL AIR SOURCE HP SUPPLEMENTAL HTG COIL,Outlet,1
 Non-Parent Node Connection,COMMUNITY_RM CENTRAL AIR SOURCE HP UNITARY SYSTEM HEATING COIL - SUPPLEMENTAL COIL NODE,COIL:HEATING:ELECTRIC,COMMUNITY_RM CENTRAL AIR SOURCE HP SUPPLEMENTAL HTG COIL,Inlet,1
 Non-Parent Node Connection,COMMUNITY_RM CENTRAL AIR SOURCE HP SUPPLY OUTLET NODE,COIL:HEATING:ELECTRIC,COMMUNITY_RM CENTRAL AIR SOURCE HP SUPPLEMENTAL HTG COIL,Outlet,1
 Non-Parent Node Connection,CORRIDOR CENTRAL AIR SOURCE HP UNITARY SYSTEM HEATING COIL - SUPPLEMENTAL COIL NODE,COIL:HEATING:ELECTRIC,CORRIDOR CENTRAL AIR SOURCE HP SUPPLEMENTAL HTG COIL,Inlet,1
 Non-Parent Node Connection,CORRIDOR CENTRAL AIR SOURCE HP SUPPLY OUTLET NODE,COIL:HEATING:ELECTRIC,CORRIDOR CENTRAL AIR SOURCE HP SUPPLEMENTAL HTG COIL,Outlet,1
 Non-Parent Node Connection,CORRIDOR_2 CENTRAL AIR SOURCE HP UNITARY SYSTEM HEATING COIL - SUPPLEMENTAL COIL NODE,COIL:HEATING:ELECTRIC,CORRIDOR_2 CENTRAL AIR SOURCE HP SUPPLEMENTAL HTG COIL,Inlet,1
 Non-Parent Node Connection,CORRIDOR_2 CENTRAL AIR SOURCE HP SUPPLY OUTLET NODE,COIL:HEATING:ELECTRIC,CORRIDOR_2 CENTRAL AIR SOURCE HP SUPPLEMENTAL HTG COIL,Outlet,1
 Non-Parent Node Connection,CORRIDOR_3 CENTRAL AIR SOURCE HP UNITARY SYSTEM HEATING COIL - SUPPLEMENTAL COIL NODE,COIL:HEATING:ELECTRIC,CORRIDOR_3 CENTRAL AIR SOURCE HP SUPPLEMENTAL HTG COIL,Inlet,1
 Non-Parent Node Connection,CORRIDOR_3 CENTRAL AIR SOURCE HP SUPPLY OUTLET NODE,COIL:HEATING:ELECTRIC,CORRIDOR_3 CENTRAL AIR SOURCE HP SUPPLEMENTAL HTG COIL,Outlet,1
 Non-Parent Node Connection,CORRIDOR_4 CENTRAL AIR SOURCE HP UNITARY SYSTEM HEATING COIL - SUPPLEMENTAL COIL NODE,COIL:HEATING:ELECTRIC,CORRIDOR_4 CENTRAL AIR SOURCE HP SUPPLEMENTAL HTG COIL,Inlet,1
 Non-Parent Node Connection,CORRIDOR_4 CENTRAL AIR SOURCE HP SUPPLY OUTLET NODE,COIL:HEATING:ELECTRIC,CORRIDOR_4 CENTRAL AIR SOURCE HP SUPPLEMENTAL HTG COIL,Outlet,1
 Non-Parent Node Connection,GYM 1 CENTRAL AIR SOURCE HP UNITARY SYSTEM HEATING COIL - SUPPLEMENTAL COIL NODE,COIL:HEATING:ELECTRIC,GYM 1 CENTRAL AIR SOURCE HP SUPPLEMENTAL HTG COIL,Inlet,1
 Non-Parent Node Connection,GYM 1 CENTRAL AIR SOURCE HP SUPPLY OUTLET NODE,COIL:HEATING:ELECTRIC,GYM 1 CENTRAL AIR SOURCE HP SUPPLEMENTAL HTG COIL,Outlet,1
 Non-Parent Node Connection,LT_RETAIL_1 CENTRAL AIR SOURCE HP UNITARY SYSTEM HEATING COIL - SUPPLEMENTAL COIL NODE,COIL:HEATING:ELECTRIC,LT_RETAIL_1 CENTRAL AIR SOURCE HP SUPPLEMENTAL HTG COIL,Inlet,1
 Non-Parent Node Connection,LT_RETAIL_1 CENTRAL AIR SOURCE HP SUPPLY OUTLET NODE,COIL:HEATING:ELECTRIC,LT_RETAIL_1 CENTRAL AIR SOURCE HP SUPPLEMENTAL HTG COIL,Outlet,1
 Non-Parent Node Connection,LT_RETAIL_2 CENTRAL AIR SOURCE HP UNITARY SYSTEM HEATING COIL - SUPPLEMENTAL COIL NODE,COIL:HEATING:ELECTRIC,LT_RETAIL_2 CENTRAL AIR SOURCE HP SUPPLEMENTAL HTG COIL,Inlet,1
 Non-Parent Node Connection,LT_RETAIL_2 CENTRAL AIR SOURCE HP SUPPLY OUTLET NODE,COIL:HEATING:ELECTRIC,LT_RETAIL_2 CENTRAL AIR SOURCE HP SUPPLEMENTAL HTG COIL,Outlet,1
 Non-Parent Node Connection,LT_RETAIL_3 CENTRAL AIR SOURCE HP UNITARY SYSTEM HEATING COIL - SUPPLEMENTAL COIL NODE,COIL:HEATING:ELECTRIC,LT_RETAIL_3 CENTRAL AIR SOURCE HP SUPPLEMENTAL HTG COIL,Inlet,1
 Non-Parent Node Connection,LT_RETAIL_3 CENTRAL AIR SOURCE HP SUPPLY OUTLET NODE,COIL:HEATING:ELECTRIC,LT_RETAIL_3 CENTRAL AIR SOURCE HP SUPPLEMENTAL HTG COIL,Outlet,1
 Non-Parent Node Connection,LT_RETAIL_4 CENTRAL AIR SOURCE HP UNITARY SYSTEM HEATING COIL - SUPPLEMENTAL COIL NODE,COIL:HEATING:ELECTRIC,LT_RETAIL_4 CENTRAL AIR SOURCE HP SUPPLEMENTAL HTG COIL,Inlet,1
 Non-Parent Node Connection,LT_RETAIL_4 CENTRAL AIR SOURCE HP SUPPLY OUTLET NODE,COIL:HEATING:ELECTRIC,LT_RETAIL_4 CENTRAL AIR SOURCE HP SUPPLEMENTAL HTG COIL,Outlet,1
 Non-Parent Node Connection,OFFICE 1 CENTRAL AIR SOURCE HP UNITARY SYSTEM HEATING COIL - SUPPLEMENTAL COIL NODE,COIL:HEATING:ELECTRIC,OFFICE 1 CENTRAL AIR SOURCE HP SUPPLEMENTAL HTG COIL,Inlet,1
 Non-Parent Node Connection,OFFICE 1 CENTRAL AIR SOURCE HP SUPPLY OUTLET NODE,COIL:HEATING:ELECTRIC,OFFICE 1 CENTRAL AIR SOURCE HP SUPPLEMENTAL HTG COIL,Outlet,1
 Non-Parent Node Connection,DOMESTIC HOT WATER LOOP|BUILDING UNIT 001 SUPPLY INLET NODE,PUMP:VARIABLESPEED,PUMP VARIABLE SPEED 1,Inlet,1
 Non-Parent Node Connection,PUMP VARIABLE SPEED 1 OUTLET WATER NODE,PUMP:VARIABLESPEED,PUMP VARIABLE SPEED 1,Outlet,1
 Non-Parent Node Connection,DOMESTIC HOT WATER LOOP|BUILDING UNIT 002 SUPPLY INLET NODE,PUMP:VARIABLESPEED,PUMP VARIABLE SPEED 2,Inlet,1
 Non-Parent Node Connection,PUMP VARIABLE SPEED 2 OUTLET WATER NODE,PUMP:VARIABLESPEED,PUMP VARIABLE SPEED 2,Outlet,1
 Non-Parent Node Connection,DOMESTIC HOT WATER LOOP|BUILDING UNIT 003 SUPPLY INLET NODE,PUMP:VARIABLESPEED,PUMP VARIABLE SPEED 3,Inlet,1
 Non-Parent Node Connection,PUMP VARIABLE SPEED 3 OUTLET WATER NODE,PUMP:VARIABLESPEED,PUMP VARIABLE SPEED 3,Outlet,1
 Non-Parent Node Connection,DOMESTIC HOT WATER LOOP|BUILDING UNIT 004 SUPPLY INLET NODE,PUMP:VARIABLESPEED,PUMP VARIABLE SPEED 4,Inlet,1
 Non-Parent Node Connection,PUMP VARIABLE SPEED 4 OUTLET WATER NODE,PUMP:VARIABLESPEED,PUMP VARIABLE SPEED 4,Outlet,1
 Non-Parent Node Connection,DOMESTIC HOT WATER LOOP|BUILDING UNIT 005 SUPPLY INLET NODE,PUMP:VARIABLESPEED,PUMP VARIABLE SPEED 5,Inlet,1
 Non-Parent Node Connection,PUMP VARIABLE SPEED 5 OUTLET WATER NODE,PUMP:VARIABLESPEED,PUMP VARIABLE SPEED 5,Outlet,1
 Non-Parent Node Connection,DOMESTIC HOT WATER LOOP|BUILDING UNIT 006 SUPPLY INLET NODE,PUMP:VARIABLESPEED,PUMP VARIABLE SPEED 6,Inlet,1
 Non-Parent Node Connection,PUMP VARIABLE SPEED 6 OUTLET WATER NODE,PUMP:VARIABLESPEED,PUMP VARIABLE SPEED 6,Outlet,1
 Non-Parent Node Connection,DOMESTIC HOT WATER LOOP|BUILDING UNIT 007 SUPPLY INLET NODE,PUMP:VARIABLESPEED,PUMP VARIABLE SPEED 7,Inlet,1
 Non-Parent Node Connection,PUMP VARIABLE SPEED 7 OUTLET WATER NODE,PUMP:VARIABLESPEED,PUMP VARIABLE SPEED 7,Outlet,1
 Non-Parent Node Connection,DOMESTIC HOT WATER LOOP|BUILDING UNIT 008 SUPPLY INLET NODE,PUMP:VARIABLESPEED,PUMP VARIABLE SPEED 8,Inlet,1
 Non-Parent Node Connection,PUMP VARIABLE SPEED 8 OUTLET WATER NODE,PUMP:VARIABLESPEED,PUMP VARIABLE SPEED 8,Outlet,1
 Non-Parent Node Connection,DOMESTIC HOT WATER LOOP|BUILDING UNIT 009 SUPPLY INLET NODE,PUMP:VARIABLESPEED,PUMP VARIABLE SPEED 9,Inlet,1
 Non-Parent Node Connection,PUMP VARIABLE SPEED 9 OUTLET WATER NODE,PUMP:VARIABLESPEED,PUMP VARIABLE SPEED 9,Outlet,1
 Non-Parent Node Connection,DOMESTIC HOT WATER LOOP|BUILDING UNIT 010 SUPPLY INLET NODE,PUMP:VARIABLESPEED,PUMP VARIABLE SPEED 10,Inlet,1
 Non-Parent Node Connection,PUMP VARIABLE SPEED 10 OUTLET WATER NODE,PUMP:VARIABLESPEED,PUMP VARIABLE SPEED 10,Outlet,1
 Non-Parent Node Connection,DOMESTIC HOT WATER LOOP|BUILDING UNIT 011 SUPPLY INLET NODE,PUMP:VARIABLESPEED,PUMP VARIABLE SPEED 11,Inlet,1
 Non-Parent Node Connection,PUMP VARIABLE SPEED 11 OUTLET WATER NODE,PUMP:VARIABLESPEED,PUMP VARIABLE SPEED 11,Outlet,1
 Non-Parent Node Connection,DOMESTIC HOT WATER LOOP|BUILDING UNIT 012 SUPPLY INLET NODE,PUMP:VARIABLESPEED,PUMP VARIABLE SPEED 12,Inlet,1
 Non-Parent Node Connection,PUMP VARIABLE SPEED 12 OUTLET WATER NODE,PUMP:VARIABLESPEED,PUMP VARIABLE SPEED 12,Outlet,1
 Non-Parent Node Connection,DOMESTIC HOT WATER LOOP|BUILDING UNIT 101 SUPPLY INLET NODE,PUMP:VARIABLESPEED,PUMP VARIABLE SPEED 13,Inlet,1
 Non-Parent Node Connection,PUMP VARIABLE SPEED 13 OUTLET WATER NODE,PUMP:VARIABLESPEED,PUMP VARIABLE SPEED 13,Outlet,1
 Non-Parent Node Connection,DOMESTIC HOT WATER LOOP|BUILDING UNIT 102 SUPPLY INLET NODE,PUMP:VARIABLESPEED,PUMP VARIABLE SPEED 14,Inlet,1
 Non-Parent Node Connection,PUMP VARIABLE SPEED 14 OUTLET WATER NODE,PUMP:VARIABLESPEED,PUMP VARIABLE SPEED 14,Outlet,1
 Non-Parent Node Connection,DOMESTIC HOT WATER LOOP|BUILDING UNIT 103 SUPPLY INLET NODE,PUMP:VARIABLESPEED,PUMP VARIABLE SPEED 15,Inlet,1
 Non-Parent Node Connection,PUMP VARIABLE SPEED 15 OUTLET WATER NODE,PUMP:VARIABLESPEED,PUMP VARIABLE SPEED 15,Outlet,1
 Non-Parent Node Connection,DOMESTIC HOT WATER LOOP|BUILDING UNIT 104 SUPPLY INLET NODE,PUMP:VARIABLESPEED,PUMP VARIABLE SPEED 16,Inlet,1
 Non-Parent Node Connection,PUMP VARIABLE SPEED 16 OUTLET WATER NODE,PUMP:VARIABLESPEED,PUMP VARIABLE SPEED 16,Outlet,1
 Non-Parent Node Connection,DOMESTIC HOT WATER LOOP|BUILDING UNIT 105 SUPPLY INLET NODE,PUMP:VARIABLESPEED,PUMP VARIABLE SPEED 17,Inlet,1
 Non-Parent Node Connection,PUMP VARIABLE SPEED 17 OUTLET WATER NODE,PUMP:VARIABLESPEED,PUMP VARIABLE SPEED 17,Outlet,1
 Non-Parent Node Connection,DOMESTIC HOT WATER LOOP|BUILDING UNIT 106 SUPPLY INLET NODE,PUMP:VARIABLESPEED,PUMP VARIABLE SPEED 18,Inlet,1
 Non-Parent Node Connection,PUMP VARIABLE SPEED 18 OUTLET WATER NODE,PUMP:VARIABLESPEED,PUMP VARIABLE SPEED 18,Outlet,1
 Non-Parent Node Connection,DOMESTIC HOT WATER LOOP|BUILDING UNIT 107 SUPPLY INLET NODE,PUMP:VARIABLESPEED,PUMP VARIABLE SPEED 19,Inlet,1
 Non-Parent Node Connection,PUMP VARIABLE SPEED 19 OUTLET WATER NODE,PUMP:VARIABLESPEED,PUMP VARIABLE SPEED 19,Outlet,1
 Non-Parent Node Connection,DOMESTIC HOT WATER LOOP|BUILDING UNIT 108 SUPPLY INLET NODE,PUMP:VARIABLESPEED,PUMP VARIABLE SPEED 20,Inlet,1
 Non-Parent Node Connection,PUMP VARIABLE SPEED 20 OUTLET WATER NODE,PUMP:VARIABLESPEED,PUMP VARIABLE SPEED 20,Outlet,1
 Non-Parent Node Connection,DOMESTIC HOT WATER LOOP|BUILDING UNIT 109 SUPPLY INLET NODE,PUMP:VARIABLESPEED,PUMP VARIABLE SPEED 21,Inlet,1
 Non-Parent Node Connection,PUMP VARIABLE SPEED 21 OUTLET WATER NODE,PUMP:VARIABLESPEED,PUMP VARIABLE SPEED 21,Outlet,1
 Non-Parent Node Connection,DOMESTIC HOT WATER LOOP|BUILDING UNIT 110 SUPPLY INLET NODE,PUMP:VARIABLESPEED,PUMP VARIABLE SPEED 22,Inlet,1
 Non-Parent Node Connection,PUMP VARIABLE SPEED 22 OUTLET WATER NODE,PUMP:VARIABLESPEED,PUMP VARIABLE SPEED 22,Outlet,1
 Non-Parent Node Connection,DOMESTIC HOT WATER LOOP|BUILDING UNIT 111 SUPPLY INLET NODE,PUMP:VARIABLESPEED,PUMP VARIABLE SPEED 23,Inlet,1
 Non-Parent Node Connection,PUMP VARIABLE SPEED 23 OUTLET WATER NODE,PUMP:VARIABLESPEED,PUMP VARIABLE SPEED 23,Outlet,1
 Non-Parent Node Connection,DOMESTIC HOT WATER LOOP|BUILDING UNIT 112 SUPPLY INLET NODE,PUMP:VARIABLESPEED,PUMP VARIABLE SPEED 24,Inlet,1
 Non-Parent Node Connection,PUMP VARIABLE SPEED 24 OUTLET WATER NODE,PUMP:VARIABLESPEED,PUMP VARIABLE SPEED 24,Outlet,1
 Non-Parent Node Connection,DOMESTIC HOT WATER LOOP|BUILDING UNIT 113 SUPPLY INLET NODE,PUMP:VARIABLESPEED,PUMP VARIABLE SPEED 25,Inlet,1
 Non-Parent Node Connection,PUMP VARIABLE SPEED 25 OUTLET WATER NODE,PUMP:VARIABLESPEED,PUMP VARIABLE SPEED 25,Outlet,1
 Non-Parent Node Connection,DOMESTIC HOT WATER LOOP|BUILDING UNIT 114 SUPPLY INLET NODE,PUMP:VARIABLESPEED,PUMP VARIABLE SPEED 26,Inlet,1
 Non-Parent Node Connection,PUMP VARIABLE SPEED 26 OUTLET WATER NODE,PUMP:VARIABLESPEED,PUMP VARIABLE SPEED 26,Outlet,1
 Non-Parent Node Connection,DOMESTIC HOT WATER LOOP|BUILDING UNIT 115 SUPPLY INLET NODE,PUMP:VARIABLESPEED,PUMP VARIABLE SPEED 27,Inlet,1
 Non-Parent Node Connection,PUMP VARIABLE SPEED 27 OUTLET WATER NODE,PUMP:VARIABLESPEED,PUMP VARIABLE SPEED 27,Outlet,1
 Non-Parent Node Connection,DOMESTIC HOT WATER LOOP|BUILDING UNIT 116 SUPPLY INLET NODE,PUMP:VARIABLESPEED,PUMP VARIABLE SPEED 28,Inlet,1
 Non-Parent Node Connection,PUMP VARIABLE SPEED 28 OUTLET WATER NODE,PUMP:VARIABLESPEED,PUMP VARIABLE SPEED 28,Outlet,1
 Non-Parent Node Connection,DOMESTIC HOT WATER LOOP|BUILDING UNIT 117 SUPPLY INLET NODE,PUMP:VARIABLESPEED,PUMP VARIABLE SPEED 29,Inlet,1
 Non-Parent Node Connection,PUMP VARIABLE SPEED 29 OUTLET WATER NODE,PUMP:VARIABLESPEED,PUMP VARIABLE SPEED 29,Outlet,1
 Non-Parent Node Connection,DOMESTIC HOT WATER LOOP|BUILDING UNIT 118 SUPPLY INLET NODE,PUMP:VARIABLESPEED,PUMP VARIABLE SPEED 30,Inlet,1
 Non-Parent Node Connection,PUMP VARIABLE SPEED 30 OUTLET WATER NODE,PUMP:VARIABLESPEED,PUMP VARIABLE SPEED 30,Outlet,1
 Non-Parent Node Connection,DOMESTIC HOT WATER LOOP|BUILDING UNIT 119 SUPPLY INLET NODE,PUMP:VARIABLESPEED,PUMP VARIABLE SPEED 31,Inlet,1
 Non-Parent Node Connection,PUMP VARIABLE SPEED 31 OUTLET WATER NODE,PUMP:VARIABLESPEED,PUMP VARIABLE SPEED 31,Outlet,1
 Non-Parent Node Connection,DOMESTIC HOT WATER LOOP|BUILDING UNIT 120 SUPPLY INLET NODE,PUMP:VARIABLESPEED,PUMP VARIABLE SPEED 32,Inlet,1
 Non-Parent Node Connection,PUMP VARIABLE SPEED 32 OUTLET WATER NODE,PUMP:VARIABLESPEED,PUMP VARIABLE SPEED 32,Outlet,1
 Non-Parent Node Connection,DOMESTIC HOT WATER LOOP|BUILDING UNIT 121 SUPPLY INLET NODE,PUMP:VARIABLESPEED,PUMP VARIABLE SPEED 33,Inlet,1
 Non-Parent Node Connection,PUMP VARIABLE SPEED 33 OUTLET WATER NODE,PUMP:VARIABLESPEED,PUMP VARIABLE SPEED 33,Outlet,1
 Non-Parent Node Connection,DOMESTIC HOT WATER LOOP|BUILDING UNIT 201 SUPPLY INLET NODE,PUMP:VARIABLESPEED,PUMP VARIABLE SPEED 34,Inlet,1
 Non-Parent Node Connection,PUMP VARIABLE SPEED 34 OUTLET WATER NODE,PUMP:VARIABLESPEED,PUMP VARIABLE SPEED 34,Outlet,1
 Non-Parent Node Connection,DOMESTIC HOT WATER LOOP|BUILDING UNIT 202 SUPPLY INLET NODE,PUMP:VARIABLESPEED,PUMP VARIABLE SPEED 35,Inlet,1
 Non-Parent Node Connection,PUMP VARIABLE SPEED 35 OUTLET WATER NODE,PUMP:VARIABLESPEED,PUMP VARIABLE SPEED 35,Outlet,1
 Non-Parent Node Connection,DOMESTIC HOT WATER LOOP|BUILDING UNIT 203 SUPPLY INLET NODE,PUMP:VARIABLESPEED,PUMP VARIABLE SPEED 36,Inlet,1
 Non-Parent Node Connection,PUMP VARIABLE SPEED 36 OUTLET WATER NODE,PUMP:VARIABLESPEED,PUMP VARIABLE SPEED 36,Outlet,1
 Non-Parent Node Connection,DOMESTIC HOT WATER LOOP|BUILDING UNIT 204 SUPPLY INLET NODE,PUMP:VARIABLESPEED,PUMP VARIABLE SPEED 37,Inlet,1
 Non-Parent Node Connection,PUMP VARIABLE SPEED 37 OUTLET WATER NODE,PUMP:VARIABLESPEED,PUMP VARIABLE SPEED 37,Outlet,1
 Non-Parent Node Connection,DOMESTIC HOT WATER LOOP|BUILDING UNIT 205 SUPPLY INLET NODE,PUMP:VARIABLESPEED,PUMP VARIABLE SPEED 38,Inlet,1
 Non-Parent Node Connection,PUMP VARIABLE SPEED 38 OUTLET WATER NODE,PUMP:VARIABLESPEED,PUMP VARIABLE SPEED 38,Outlet,1
 Non-Parent Node Connection,DOMESTIC HOT WATER LOOP|BUILDING UNIT 206 SUPPLY INLET NODE,PUMP:VARIABLESPEED,PUMP VARIABLE SPEED 39,Inlet,1
 Non-Parent Node Connection,PUMP VARIABLE SPEED 39 OUTLET WATER NODE,PUMP:VARIABLESPEED,PUMP VARIABLE SPEED 39,Outlet,1
 Non-Parent Node Connection,DOMESTIC HOT WATER LOOP|BUILDING UNIT 207 SUPPLY INLET NODE,PUMP:VARIABLESPEED,PUMP VARIABLE SPEED 40,Inlet,1
 Non-Parent Node Connection,PUMP VARIABLE SPEED 40 OUTLET WATER NODE,PUMP:VARIABLESPEED,PUMP VARIABLE SPEED 40,Outlet,1
 Non-Parent Node Connection,DOMESTIC HOT WATER LOOP|BUILDING UNIT 208 SUPPLY INLET NODE,PUMP:VARIABLESPEED,PUMP VARIABLE SPEED 41,Inlet,1
 Non-Parent Node Connection,PUMP VARIABLE SPEED 41 OUTLET WATER NODE,PUMP:VARIABLESPEED,PUMP VARIABLE SPEED 41,Outlet,1
 Non-Parent Node Connection,DOMESTIC HOT WATER LOOP|BUILDING UNIT 209 SUPPLY INLET NODE,PUMP:VARIABLESPEED,PUMP VARIABLE SPEED 42,Inlet,1
 Non-Parent Node Connection,PUMP VARIABLE SPEED 42 OUTLET WATER NODE,PUMP:VARIABLESPEED,PUMP VARIABLE SPEED 42,Outlet,1
 Non-Parent Node Connection,DOMESTIC HOT WATER LOOP|BUILDING UNIT 301 SUPPLY INLET NODE,PUMP:VARIABLESPEED,PUMP VARIABLE SPEED 43,Inlet,1
 Non-Parent Node Connection,PUMP VARIABLE SPEED 43 OUTLET WATER NODE,PUMP:VARIABLESPEED,PUMP VARIABLE SPEED 43,Outlet,1
 Non-Parent Node Connection,DOMESTIC HOT WATER LOOP|BUILDING UNIT 302 SUPPLY INLET NODE,PUMP:VARIABLESPEED,PUMP VARIABLE SPEED 44,Inlet,1
 Non-Parent Node Connection,PUMP VARIABLE SPEED 44 OUTLET WATER NODE,PUMP:VARIABLESPEED,PUMP VARIABLE SPEED 44,Outlet,1
 Non-Parent Node Connection,DOMESTIC HOT WATER LOOP|BUILDING UNIT 303 SUPPLY INLET NODE,PUMP:VARIABLESPEED,PUMP VARIABLE SPEED 45,Inlet,1
 Non-Parent Node Connection,PUMP VARIABLE SPEED 45 OUTLET WATER NODE,PUMP:VARIABLESPEED,PUMP VARIABLE SPEED 45,Outlet,1
