! Program Version,EnergyPlus, Version 9.3.0-baff08990c, YMD=2021.05.19 07:51,
! Output:Meter Objects (applicable to this run)
Output:Meter,Electricity:Facility,hourly; !- [J]
Output:Meter:Cumulative,Electricity:Facility,hourly; !- [J]
Output:Meter,Electricity:Building,hourly; !- [J]
Output:Meter:Cumulative,Electricity:Building,hourly; !- [J]
Output:Meter,Electricity:Zone:0_BDRM_1_2,hourly; !- [J]
Output:Meter:Cumulative,Electricity:Zone:0_BDRM_1_2,hourly; !- [J]
Output:Meter,InteriorLights:Electricity,hourly; !- [J]
Output:Meter:Cumulative,InteriorLights:Electricity,hourly; !- [J]
Output:Meter,InteriorLights:Electricity:Zone:0_BDRM_1_2,hourly; !- [J]
Output:Meter:Cumulative,InteriorLights:Electricity:Zone:0_BDRM_1_2,hourly; !- [J]
Output:Meter,res lighting interior|Building Unit 001 0_Bdrm_1_2:InteriorLights:Electricity,hourly; !- [J]
Output:Meter:Cumulative,res lighting interior|Building Unit 001 0_Bdrm_1_2:InteriorLights:Electricity,hourly; !- [J]
Output:Meter,Electricity:Zone:0_BDRM_1_3,hourly; !- [J]
Output:Meter:Cumulative,Electricity:Zone:0_BDRM_1_3,hourly; !- [J]
Output:Meter,InteriorLights:Electricity:Zone:0_BDRM_1_3,hourly; !- [J]
Output:Meter:Cumulative,InteriorLights:Electricity:Zone:0_BDRM_1_3,hourly; !- [J]
Output:Meter,res lighting interior|Building Unit 005 0_Bdrm_1_3:InteriorLights:Electricity,hourly; !- [J]
Output:Meter:Cumulative,res lighting interior|Building Unit 005 0_Bdrm_1_3:InteriorLights:Electricity,hourly; !- [J]
Output:Meter,Electricity:Zone:0_BDRM_1_4,hourly; !- [J]
Output:Meter:Cumulative,Electricity:Zone:0_BDRM_1_4,hourly; !- [J]
Output:Meter,InteriorLights:Electricity:Zone:0_BDRM_1_4,hourly; !- [J]
Output:Meter:Cumulative,InteriorLights:Electricity:Zone:0_BDRM_1_4,hourly; !- [J]
Output:Meter,res lighting interior|Building Unit 009 0_Bdrm_1_4:InteriorLights:Electricity,hourly; !- [J]
Output:Meter:Cumulative,res lighting interior|Building Unit 009 0_Bdrm_1_4:InteriorLights:Electricity,hourly; !- [J]
Output:Meter,Electricity:Zone:0_BDRM_2_2,hourly; !- [J]
Output:Meter:Cumulative,Electricity:Zone:0_BDRM_2_2,hourly; !- [J]
Output:Meter,InteriorLights:Electricity:Zone:0_BDRM_2_2,hourly; !- [J]
Output:Meter:Cumulative,InteriorLights:Electricity:Zone:0_BDRM_2_2,hourly; !- [J]
Output:Meter,res lighting interior|Building Unit 002 0_Bdrm_2_2:InteriorLights:Electricity,hourly; !- [J]
Output:Meter:Cumulative,res lighting interior|Building Unit 002 0_Bdrm_2_2:InteriorLights:Electricity,hourly; !- [J]
Output:Meter,Electricity:Zone:0_BDRM_2_3,hourly; !- [J]
Output:Meter:Cumulative,Electricity:Zone:0_BDRM_2_3,hourly; !- [J]
Output:Meter,InteriorLights:Electricity:Zone:0_BDRM_2_3,hourly; !- [J]
Output:Meter:Cumulative,InteriorLights:Electricity:Zone:0_BDRM_2_3,hourly; !- [J]
Output:Meter,res lighting interior|Building Unit 006 0_Bdrm_2_3:InteriorLights:Electricity,hourly; !- [J]
Output:Meter:Cumulative,res lighting interior|Building Unit 006 0_Bdrm_2_3:InteriorLights:Electricity,hourly; !- [J]
Output:Meter,Electricity:Zone:0_BDRM_2_4,hourly; !- [J]
Output:Meter:Cumulative,Electricity:Zone:0_BDRM_2_4,hourly; !- [J]
Output:Meter,InteriorLights:Electricity:Zone:0_BDRM_2_4,hourly; !- [J]
Output:Meter:Cumulative,InteriorLights:Electricity:Zone:0_BDRM_2_4,hourly; !- [J]
Output:Meter,res lighting interior|Building Unit 010 0_Bdrm_2_4:InteriorLights:Electricity,hourly; !- [J]
Output:Meter:Cumulative,res lighting interior|Building Unit 010 0_Bdrm_2_4:InteriorLights:Electricity,hourly; !- [J]
Output:Meter,Electricity:Zone:0_BDRM_3_2,hourly; !- [J]
Output:Meter:Cumulative,Electricity:Zone:0_BDRM_3_2,hourly; !- [J]
Output:Meter,InteriorLights:Electricity:Zone:0_BDRM_3_2,hourly; !- [J]
Output:Meter:Cumulative,InteriorLights:Electricity:Zone:0_BDRM_3_2,hourly; !- [J]
Output:Meter,res lighting interior|Building Unit 003 0_Bdrm_3_2:InteriorLights:Electricity,hourly; !- [J]
Output:Meter:Cumulative,res lighting interior|Building Unit 003 0_Bdrm_3_2:InteriorLights:Electricity,hourly; !- [J]
Output:Meter,Electricity:Zone:0_BDRM_3_3,hourly; !- [J]
Output:Meter:Cumulative,Electricity:Zone:0_BDRM_3_3,hourly; !- [J]
Output:Meter,InteriorLights:Electricity:Zone:0_BDRM_3_3,hourly; !- [J]
Output:Meter:Cumulative,InteriorLights:Electricity:Zone:0_BDRM_3_3,hourly; !- [J]
Output:Meter,res lighting interior|Building Unit 007 0_Bdrm_3_3:InteriorLights:Electricity,hourly; !- [J]
Output:Meter:Cumulative,res lighting interior|Building Unit 007 0_Bdrm_3_3:InteriorLights:Electricity,hourly; !- [J]
Output:Meter,Electricity:Zone:0_BDRM_3_4,hourly; !- [J]
Output:Meter:Cumulative,Electricity:Zone:0_BDRM_3_4,hourly; !- [J]
Output:Meter,InteriorLights:Electricity:Zone:0_BDRM_3_4,hourly; !- [J]
Output:Meter:Cumulative,InteriorLights:Electricity:Zone:0_BDRM_3_4,hourly; !- [J]
Output:Meter,res lighting interior|Building Unit 011 0_Bdrm_3_4:InteriorLights:Electricity,hourly; !- [J]
Output:Meter:Cumulative,res lighting interior|Building Unit 011 0_Bdrm_3_4:InteriorLights:Electricity,hourly; !- [J]
Output:Meter,Electricity:Zone:0_BDRM_4_2,hourly; !- [J]
Output:Meter:Cumulative,Electricity:Zone:0_BDRM_4_2,hourly; !- [J]
Output:Meter,InteriorLights:Electricity:Zone:0_BDRM_4_2,hourly; !- [J]
Output:Meter:Cumulative,InteriorLights:Electricity:Zone:0_BDRM_4_2,hourly; !- [J]
Output:Meter,res lighting interior|Building Unit 004 0_Bdrm_4_2:InteriorLights:Electricity,hourly; !- [J]
Output:Meter:Cumulative,res lighting interior|Building Unit 004 0_Bdrm_4_2:InteriorLights:Electricity,hourly; !- [J]
Output:Meter,Electricity:Zone:0_BDRM_4_3,hourly; !- [J]
Output:Meter:Cumulative,Electricity:Zone:0_BDRM_4_3,hourly; !- [J]
Output:Meter,InteriorLights:Electricity:Zone:0_BDRM_4_3,hourly; !- [J]
Output:Meter:Cumulative,InteriorLights:Electricity:Zone:0_BDRM_4_3,hourly; !- [J]
Output:Meter,res lighting interior|Building Unit 008 0_Bdrm_4_3:InteriorLights:Electricity,hourly; !- [J]
Output:Meter:Cumulative,res lighting interior|Building Unit 008 0_Bdrm_4_3:InteriorLights:Electricity,hourly; !- [J]
Output:Meter,Electricity:Zone:0_BDRM_4_4,hourly; !- [J]
Output:Meter:Cumulative,Electricity:Zone:0_BDRM_4_4,hourly; !- [J]
Output:Meter,InteriorLights:Electricity:Zone:0_BDRM_4_4,hourly; !- [J]
Output:Meter:Cumulative,InteriorLights:Electricity:Zone:0_BDRM_4_4,hourly; !- [J]
Output:Meter,res lighting interior|Building Unit 012 0_Bdrm_4_4:InteriorLights:Electricity,hourly; !- [J]
Output:Meter:Cumulative,res lighting interior|Building Unit 012 0_Bdrm_4_4:InteriorLights:Electricity,hourly; !- [J]
Output:Meter,Electricity:Zone:1_BDRM_1_2,hourly; !- [J]
Output:Meter:Cumulative,Electricity:Zone:1_BDRM_1_2,hourly; !- [J]
Output:Meter,InteriorLights:Electricity:Zone:1_BDRM_1_2,hourly; !- [J]
Output:Meter:Cumulative,InteriorLights:Electricity:Zone:1_BDRM_1_2,hourly; !- [J]
Output:Meter,res lighting interior|Building Unit 101 1_Bdrm_1_2:InteriorLights:Electricity,hourly; !- [J]
Output:Meter:Cumulative,res lighting interior|Building Unit 101 1_Bdrm_1_2:InteriorLights:Electricity,hourly; !- [J]
Output:Meter,Electricity:Zone:1_BDRM_1_3,hourly; !- [J]
Output:Meter:Cumulative,Electricity:Zone:1_BDRM_1_3,hourly; !- [J]
Output:Meter,InteriorLights:Electricity:Zone:1_BDRM_1_3,hourly; !- [J]
Output:Meter:Cumulative,InteriorLights:Electricity:Zone:1_BDRM_1_3,hourly; !- [J]
Output:Meter,res lighting interior|Building Unit 108 1_Bdrm_1_3:InteriorLights:Electricity,hourly; !- [J]
Output:Meter:Cumulative,res lighting interior|Building Unit 108 1_Bdrm_1_3:InteriorLights:Electricity,hourly; !- [J]
Output:Meter,Electricity:Zone:1_BDRM_1_4,hourly; !- [J]
Output:Meter:Cumulative,Electricity:Zone:1_BDRM_1_4,hourly; !- [J]
Output:Meter,InteriorLights:Electricity:Zone:1_BDRM_1_4,hourly; !- [J]
Output:Meter:Cumulative,InteriorLights:Electricity:Zone:1_BDRM_1_4,hourly; !- [J]
Output:Meter,res lighting interior|Building Unit 115 1_Bdrm_1_4:InteriorLights:Electricity,hourly; !- [J]
Output:Meter:Cumulative,res lighting interior|Building Unit 115 1_Bdrm_1_4:InteriorLights:Electricity,hourly; !- [J]
Output:Meter,Electricity:Zone:1_BDRM_2_2,hourly; !- [J]
Output:Meter:Cumulative,Electricity:Zone:1_BDRM_2_2,hourly; !- [J]
Output:Meter,InteriorLights:Electricity:Zone:1_BDRM_2_2,hourly; !- [J]
Output:Meter:Cumulative,InteriorLights:Electricity:Zone:1_BDRM_2_2,hourly; !- [J]
Output:Meter,res lighting interior|Building Unit 102 1_Bdrm_2_2:InteriorLights:Electricity,hourly; !- [J]
Output:Meter:Cumulative,res lighting interior|Building Unit 102 1_Bdrm_2_2:InteriorLights:Electricity,hourly; !- [J]
Output:Meter,Electricity:Zone:1_BDRM_2_3,hourly; !- [J]
Output:Meter:Cumulative,Electricity:Zone:1_BDRM_2_3,hourly; !- [J]
Output:Meter,InteriorLights:Electricity:Zone:1_BDRM_2_3,hourly; !- [J]
Output:Meter:Cumulative,InteriorLights:Electricity:Zone:1_BDRM_2_3,hourly; !- [J]
Output:Meter,res lighting interior|Building Unit 109 1_Bdrm_2_3:InteriorLights:Electricity,hourly; !- [J]
Output:Meter:Cumulative,res lighting interior|Building Unit 109 1_Bdrm_2_3:InteriorLights:Electricity,hourly; !- [J]
Output:Meter,Electricity:Zone:1_BDRM_2_4,hourly; !- [J]
Output:Meter:Cumulative,Electricity:Zone:1_BDRM_2_4,hourly; !- [J]
Output:Meter,InteriorLights:Electricity:Zone:1_BDRM_2_4,hourly; !- [J]
Output:Meter:Cumulative,InteriorLights:Electricity:Zone:1_BDRM_2_4,hourly; !- [J]
Output:Meter,res lighting interior|Building Unit 116 1_Bdrm_2_4:InteriorLights:Electricity,hourly; !- [J]
Output:Meter:Cumulative,res lighting interior|Building Unit 116 1_Bdrm_2_4:InteriorLights:Electricity,hourly; !- [J]
Output:Meter,Electricity:Zone:1_BDRM_3_2,hourly; !- [J]
Output:Meter:Cumulative,Electricity:Zone:1_BDRM_3_2,hourly; !- [J]
Output:Meter,InteriorLights:Electricity:Zone:1_BDRM_3_2,hourly; !- [J]
Output:Meter:Cumulative,InteriorLights:Electricity:Zone:1_BDRM_3_2,hourly; !- [J]
Output:Meter,res lighting interior|Building Unit 103 1_Bdrm_3_2:InteriorLights:Electricity,hourly; !- [J]
Output:Meter:Cumulative,res lighting interior|Building Unit 103 1_Bdrm_3_2:InteriorLights:Electricity,hourly; !- [J]
Output:Meter,Electricity:Zone:1_BDRM_3_3,hourly; !- [J]
Output:Meter:Cumulative,Electricity:Zone:1_BDRM_3_3,hourly; !- [J]
Output:Meter,InteriorLights:Electricity:Zone:1_BDRM_3_3,hourly; !- [J]
Output:Meter:Cumulative,InteriorLights:Electricity:Zone:1_BDRM_3_3,hourly; !- [J]
Output:Meter,res lighting interior|Building Unit 110 1_Bdrm_3_3:InteriorLights:Electricity,hourly; !- [J]
Output:Meter:Cumulative,res lighting interior|Building Unit 110 1_Bdrm_3_3:InteriorLights:Electricity,hourly; !- [J]
Output:Meter,Electricity:Zone:1_BDRM_3_4,hourly; !- [J]
Output:Meter:Cumulative,Electricity:Zone:1_BDRM_3_4,hourly; !- [J]
Output:Meter,InteriorLights:Electricity:Zone:1_BDRM_3_4,hourly; !- [J]
Output:Meter:Cumulative,InteriorLights:Electricity:Zone:1_BDRM_3_4,hourly; !- [J]
Output:Meter,res lighting interior|Building Unit 117 1_Bdrm_3_4:InteriorLights:Electricity,hourly; !- [J]
Output:Meter:Cumulative,res lighting interior|Building Unit 117 1_Bdrm_3_4:InteriorLights:Electricity,hourly; !- [J]
Output:Meter,Electricity:Zone:1_BDRM_4_2,hourly; !- [J]
Output:Meter:Cumulative,Electricity:Zone:1_BDRM_4_2,hourly; !- [J]
Output:Meter,InteriorLights:Electricity:Zone:1_BDRM_4_2,hourly; !- [J]
Output:Meter:Cumulative,InteriorLights:Electricity:Zone:1_BDRM_4_2,hourly; !- [J]
Output:Meter,res lighting interior|Building Unit 104 1_Bdrm_4_2:InteriorLights:Electricity,hourly; !- [J]
Output:Meter:Cumulative,res lighting interior|Building Unit 104 1_Bdrm_4_2:InteriorLights:Electricity,hourly; !- [J]
Output:Meter,Electricity:Zone:1_BDRM_4_3,hourly; !- [J]
Output:Meter:Cumulative,Electricity:Zone:1_BDRM_4_3,hourly; !- [J]
Output:Meter,InteriorLights:Electricity:Zone:1_BDRM_4_3,hourly; !- [J]
Output:Meter:Cumulative,InteriorLights:Electricity:Zone:1_BDRM_4_3,hourly; !- [J]
Output:Meter,res lighting interior|Building Unit 111 1_Bdrm_4_3:InteriorLights:Electricity,hourly; !- [J]
Output:Meter:Cumulative,res lighting interior|Building Unit 111 1_Bdrm_4_3:InteriorLights:Electricity,hourly; !- [J]
Output:Meter,Electricity:Zone:1_BDRM_4_4,hourly; !- [J]
Output:Meter:Cumulative,Electricity:Zone:1_BDRM_4_4,hourly; !- [J]
Output:Meter,InteriorLights:Electricity:Zone:1_BDRM_4_4,hourly; !- [J]
Output:Meter:Cumulative,InteriorLights:Electricity:Zone:1_BDRM_4_4,hourly; !- [J]
Output:Meter,res lighting interior|Building Unit 118 1_Bdrm_4_4:InteriorLights:Electricity,hourly; !- [J]
Output:Meter:Cumulative,res lighting interior|Building Unit 118 1_Bdrm_4_4:InteriorLights:Electricity,hourly; !- [J]
Output:Meter,Electricity:Zone:1_BDRM_5_2,hourly; !- [J]
Output:Meter:Cumulative,Electricity:Zone:1_BDRM_5_2,hourly; !- [J]
Output:Meter,InteriorLights:Electricity:Zone:1_BDRM_5_2,hourly; !- [J]
Output:Meter:Cumulative,InteriorLights:Electricity:Zone:1_BDRM_5_2,hourly; !- [J]
Output:Meter,res lighting interior|Building Unit 105 1_Bdrm_5_2:InteriorLights:Electricity,hourly; !- [J]
Output:Meter:Cumulative,res lighting interior|Building Unit 105 1_Bdrm_5_2:InteriorLights:Electricity,hourly; !- [J]
Output:Meter,Electricity:Zone:1_BDRM_5_3,hourly; !- [J]
Output:Meter:Cumulative,Electricity:Zone:1_BDRM_5_3,hourly; !- [J]
Output:Meter,InteriorLights:Electricity:Zone:1_BDRM_5_3,hourly; !- [J]
Output:Meter:Cumulative,InteriorLights:Electricity:Zone:1_BDRM_5_3,hourly; !- [J]
Output:Meter,res lighting interior|Building Unit 112 1_Bdrm_5_3:InteriorLights:Electricity,hourly; !- [J]
Output:Meter:Cumulative,res lighting interior|Building Unit 112 1_Bdrm_5_3:InteriorLights:Electricity,hourly; !- [J]
Output:Meter,Electricity:Zone:1_BDRM_5_4,hourly; !- [J]
Output:Meter:Cumulative,Electricity:Zone:1_BDRM_5_4,hourly; !- [J]
Output:Meter,InteriorLights:Electricity:Zone:1_BDRM_5_4,hourly; !- [J]
Output:Meter:Cumulative,InteriorLights:Electricity:Zone:1_BDRM_5_4,hourly; !- [J]
Output:Meter,res lighting interior|Building Unit 119 1_Bdrm_5_4:InteriorLights:Electricity,hourly; !- [J]
Output:Meter:Cumulative,res lighting interior|Building Unit 119 1_Bdrm_5_4:InteriorLights:Electricity,hourly; !- [J]
Output:Meter,Electricity:Zone:1_BDRM_6_2,hourly; !- [J]
Output:Meter:Cumulative,Electricity:Zone:1_BDRM_6_2,hourly; !- [J]
Output:Meter,InteriorLights:Electricity:Zone:1_BDRM_6_2,hourly; !- [J]
Output:Meter:Cumulative,InteriorLights:Electricity:Zone:1_BDRM_6_2,hourly; !- [J]
Output:Meter,res lighting interior|Building Unit 106 1_Bdrm_6_2:InteriorLights:Electricity,hourly; !- [J]
Output:Meter:Cumulative,res lighting interior|Building Unit 106 1_Bdrm_6_2:InteriorLights:Electricity,hourly; !- [J]
Output:Meter,Electricity:Zone:1_BDRM_6_3,hourly; !- [J]
Output:Meter:Cumulative,Electricity:Zone:1_BDRM_6_3,hourly; !- [J]
Output:Meter,InteriorLights:Electricity:Zone:1_BDRM_6_3,hourly; !- [J]
Output:Meter:Cumulative,InteriorLights:Electricity:Zone:1_BDRM_6_3,hourly; !- [J]
Output:Meter,res lighting interior|Building Unit 113 1_Bdrm_6_3:InteriorLights:Electricity,hourly; !- [J]
Output:Meter:Cumulative,res lighting interior|Building Unit 113 1_Bdrm_6_3:InteriorLights:Electricity,hourly; !- [J]
Output:Meter,Electricity:Zone:1_BDRM_6_4,hourly; !- [J]
Output:Meter:Cumulative,Electricity:Zone:1_BDRM_6_4,hourly; !- [J]
Output:Meter,InteriorLights:Electricity:Zone:1_BDRM_6_4,hourly; !- [J]
Output:Meter:Cumulative,InteriorLights:Electricity:Zone:1_BDRM_6_4,hourly; !- [J]
Output:Meter,res lighting interior|Building Unit 120 1_Bdrm_6_4:InteriorLights:Electricity,hourly; !- [J]
Output:Meter:Cumulative,res lighting interior|Building Unit 120 1_Bdrm_6_4:InteriorLights:Electricity,hourly; !- [J]
Output:Meter,Electricity:Zone:1_BDRM_7_2,hourly; !- [J]
Output:Meter:Cumulative,Electricity:Zone:1_BDRM_7_2,hourly; !- [J]
Output:Meter,InteriorLights:Electricity:Zone:1_BDRM_7_2,hourly; !- [J]
Output:Meter:Cumulative,InteriorLights:Electricity:Zone:1_BDRM_7_2,hourly; !- [J]
Output:Meter,res lighting interior|Building Unit 107 1_Bdrm_7_2:InteriorLights:Electricity,hourly; !- [J]
Output:Meter:Cumulative,res lighting interior|Building Unit 107 1_Bdrm_7_2:InteriorLights:Electricity,hourly; !- [J]
Output:Meter,Electricity:Zone:1_BDRM_7_3,hourly; !- [J]
Output:Meter:Cumulative,Electricity:Zone:1_BDRM_7_3,hourly; !- [J]
Output:Meter,InteriorLights:Electricity:Zone:1_BDRM_7_3,hourly; !- [J]
Output:Meter:Cumulative,InteriorLights:Electricity:Zone:1_BDRM_7_3,hourly; !- [J]
Output:Meter,res lighting interior|Building Unit 114 1_Bdrm_7_3:InteriorLights:Electricity,hourly; !- [J]
Output:Meter:Cumulative,res lighting interior|Building Unit 114 1_Bdrm_7_3:InteriorLights:Electricity,hourly; !- [J]
Output:Meter,Electricity:Zone:1_BDRM_7_4,hourly; !- [J]
Output:Meter:Cumulative,Electricity:Zone:1_BDRM_7_4,hourly; !- [J]
Output:Meter,InteriorLights:Electricity:Zone:1_BDRM_7_4,hourly; !- [J]
Output:Meter:Cumulative,InteriorLights:Electricity:Zone:1_BDRM_7_4,hourly; !- [J]
Output:Meter,res lighting interior|Building Unit 121 1_Bdrm_7_4:InteriorLights:Electricity,hourly; !- [J]
Output:Meter:Cumulative,res lighting interior|Building Unit 121 1_Bdrm_7_4:InteriorLights:Electricity,hourly; !- [J]
Output:Meter,Electricity:Zone:2_BDRM_1_2,hourly; !- [J]
Output:Meter:Cumulative,Electricity:Zone:2_BDRM_1_2,hourly; !- [J]
Output:Meter,InteriorLights:Electricity:Zone:2_BDRM_1_2,hourly; !- [J]
Output:Meter:Cumulative,InteriorLights:Electricity:Zone:2_BDRM_1_2,hourly; !- [J]
Output:Meter,res lighting interior|Building Unit 201 2_Bdrm_1_2:InteriorLights:Electricity,hourly; !- [J]
Output:Meter:Cumulative,res lighting interior|Building Unit 201 2_Bdrm_1_2:InteriorLights:Electricity,hourly; !- [J]
Output:Meter,Electricity:Zone:2_BDRM_1_3,hourly; !- [J]
Output:Meter:Cumulative,Electricity:Zone:2_BDRM_1_3,hourly; !- [J]
Output:Meter,InteriorLights:Electricity:Zone:2_BDRM_1_3,hourly; !- [J]
Output:Meter:Cumulative,InteriorLights:Electricity:Zone:2_BDRM_1_3,hourly; !- [J]
Output:Meter,res lighting interior|Building Unit 204 2_Bdrm_1_3:InteriorLights:Electricity,hourly; !- [J]
Output:Meter:Cumulative,res lighting interior|Building Unit 204 2_Bdrm_1_3:InteriorLights:Electricity,hourly; !- [J]
Output:Meter,Electricity:Zone:2_BDRM_1_4,hourly; !- [J]
Output:Meter:Cumulative,Electricity:Zone:2_BDRM_1_4,hourly; !- [J]
Output:Meter,InteriorLights:Electricity:Zone:2_BDRM_1_4,hourly; !- [J]
Output:Meter:Cumulative,InteriorLights:Electricity:Zone:2_BDRM_1_4,hourly; !- [J]
Output:Meter,res lighting interior|Building Unit 207 2_Bdrm_1_4:InteriorLights:Electricity,hourly; !- [J]
Output:Meter:Cumulative,res lighting interior|Building Unit 207 2_Bdrm_1_4:InteriorLights:Electricity,hourly; !- [J]
Output:Meter,Electricity:Zone:2_BDRM_2_2,hourly; !- [J]
Output:Meter:Cumulative,Electricity:Zone:2_BDRM_2_2,hourly; !- [J]
Output:Meter,InteriorLights:Electricity:Zone:2_BDRM_2_2,hourly; !- [J]
Output:Meter:Cumulative,InteriorLights:Electricity:Zone:2_BDRM_2_2,hourly; !- [J]
Output:Meter,res lighting interior|Building Unit 202 2_Bdrm_2_2:InteriorLights:Electricity,hourly; !- [J]
Output:Meter:Cumulative,res lighting interior|Building Unit 202 2_Bdrm_2_2:InteriorLights:Electricity,hourly; !- [J]
Output:Meter,Electricity:Zone:2_BDRM_2_3,hourly; !- [J]
Output:Meter:Cumulative,Electricity:Zone:2_BDRM_2_3,hourly; !- [J]
Output:Meter,InteriorLights:Electricity:Zone:2_BDRM_2_3,hourly; !- [J]
Output:Meter:Cumulative,InteriorLights:Electricity:Zone:2_BDRM_2_3,hourly; !- [J]
Output:Meter,res lighting interior|Building Unit 205 2_Bdrm_2_3:InteriorLights:Electricity,hourly; !- [J]
Output:Meter:Cumulative,res lighting interior|Building Unit 205 2_Bdrm_2_3:InteriorLights:Electricity,hourly; !- [J]
Output:Meter,Electricity:Zone:2_BDRM_2_4,hourly; !- [J]
Output:Meter:Cumulative,Electricity:Zone:2_BDRM_2_4,hourly; !- [J]
Output:Meter,InteriorLights:Electricity:Zone:2_BDRM_2_4,hourly; !- [J]
Output:Meter:Cumulative,InteriorLights:Electricity:Zone:2_BDRM_2_4,hourly; !- [J]
Output:Meter,res lighting interior|Building Unit 208 2_Bdrm_2_4:InteriorLights:Electricity,hourly; !- [J]
Output:Meter:Cumulative,res lighting interior|Building Unit 208 2_Bdrm_2_4:InteriorLights:Electricity,hourly; !- [J]
Output:Meter,Electricity:Zone:2_BDRM_3_2,hourly; !- [J]
Output:Meter:Cumulative,Electricity:Zone:2_BDRM_3_2,hourly; !- [J]
Output:Meter,InteriorLights:Electricity:Zone:2_BDRM_3_2,hourly; !- [J]
Output:Meter:Cumulative,InteriorLights:Electricity:Zone:2_BDRM_3_2,hourly; !- [J]
Output:Meter,res lighting interior|Building Unit 203 2_Bdrm_3_2:InteriorLights:Electricity,hourly; !- [J]
Output:Meter:Cumulative,res lighting interior|Building Unit 203 2_Bdrm_3_2:InteriorLights:Electricity,hourly; !- [J]
Output:Meter,Electricity:Zone:2_BDRM_3_3,hourly; !- [J]
Output:Meter:Cumulative,Electricity:Zone:2_BDRM_3_3,hourly; !- [J]
Output:Meter,InteriorLights:Electricity:Zone:2_BDRM_3_3,hourly; !- [J]
Output:Meter:Cumulative,InteriorLights:Electricity:Zone:2_BDRM_3_3,hourly; !- [J]
Output:Meter,res lighting interior|Building Unit 206 2_Bdrm_3_3:InteriorLights:Electricity,hourly; !- [J]
Output:Meter:Cumulative,res lighting interior|Building Unit 206 2_Bdrm_3_3:InteriorLights:Electricity,hourly; !- [J]
Output:Meter,Electricity:Zone:2_BDRM_3_4,hourly; !- [J]
Output:Meter:Cumulative,Electricity:Zone:2_BDRM_3_4,hourly; !- [J]
Output:Meter,InteriorLights:Electricity:Zone:2_BDRM_3_4,hourly; !- [J]
Output:Meter:Cumulative,InteriorLights:Electricity:Zone:2_BDRM_3_4,hourly; !- [J]
Output:Meter,res lighting interior|Building Unit 209 2_Bdrm_3_4:InteriorLights:Electricity,hourly; !- [J]
Output:Meter:Cumulative,res lighting interior|Building Unit 209 2_Bdrm_3_4:InteriorLights:Electricity,hourly; !- [J]
Output:Meter,Electricity:Zone:3_BDRM_1_3,hourly; !- [J]
Output:Meter:Cumulative,Electricity:Zone:3_BDRM_1_3,hourly; !- [J]
Output:Meter,InteriorLights:Electricity:Zone:3_BDRM_1_3,hourly; !- [J]
Output:Meter:Cumulative,InteriorLights:Electricity:Zone:3_BDRM_1_3,hourly; !- [J]
Output:Meter,res lighting interior|Building Unit 302 3_Bdrm_1_3:InteriorLights:Electricity,hourly; !- [J]
Output:Meter:Cumulative,res lighting interior|Building Unit 302 3_Bdrm_1_3:InteriorLights:Electricity,hourly; !- [J]
Output:Meter,Electricity:Zone:3_BDRM_1_4,hourly; !- [J]
Output:Meter:Cumulative,Electricity:Zone:3_BDRM_1_4,hourly; !- [J]
Output:Meter,InteriorLights:Electricity:Zone:3_BDRM_1_4,hourly; !- [J]
Output:Meter:Cumulative,InteriorLights:Electricity:Zone:3_BDRM_1_4,hourly; !- [J]
Output:Meter,res lighting interior|Building Unit 303 3_Bdrm_1_4:InteriorLights:Electricity,hourly; !- [J]
Output:Meter:Cumulative,res lighting interior|Building Unit 303 3_Bdrm_1_4:InteriorLights:Electricity,hourly; !- [J]
Output:Meter,Electricity:Zone:3_BDRM_2_2,hourly; !- [J]
Output:Meter:Cumulative,Electricity:Zone:3_BDRM_2_2,hourly; !- [J]
Output:Meter,InteriorLights:Electricity:Zone:3_BDRM_2_2,hourly; !- [J]
Output:Meter:Cumulative,InteriorLights:Electricity:Zone:3_BDRM_2_2,hourly; !- [J]
Output:Meter,res lighting interior|Building Unit 301 3_Bdrm_2_2:InteriorLights:Electricity,hourly; !- [J]
Output:Meter:Cumulative,res lighting interior|Building Unit 301 3_Bdrm_2_2:InteriorLights:Electricity,hourly; !- [J]
Output:Meter,Electricity:Zone:BATHRM_1,hourly; !- [J]
Output:Meter:Cumulative,Electricity:Zone:BATHRM_1,hourly; !- [J]
Output:Meter,InteriorLights:Electricity:Zone:BATHRM_1,hourly; !- [J]
Output:Meter:Cumulative,InteriorLights:Electricity:Zone:BATHRM_1,hourly; !- [J]
Output:Meter,General:InteriorLights:Electricity,hourly; !- [J]
Output:Meter:Cumulative,General:InteriorLights:Electricity,hourly; !- [J]
Output:Meter,Electricity:Zone:BATHRM_2,hourly; !- [J]
Output:Meter:Cumulative,Electricity:Zone:BATHRM_2,hourly; !- [J]
Output:Meter,InteriorLights:Electricity:Zone:BATHRM_2,hourly; !- [J]
Output:Meter:Cumulative,InteriorLights:Electricity:Zone:BATHRM_2,hourly; !- [J]
Output:Meter,Electricity:Zone:COFFEE_SHOP,hourly; !- [J]
Output:Meter:Cumulative,Electricity:Zone:COFFEE_SHOP,hourly; !- [J]
Output:Meter,InteriorLights:Electricity:Zone:COFFEE_SHOP,hourly; !- [J]
Output:Meter:Cumulative,InteriorLights:Electricity:Zone:COFFEE_SHOP,hourly; !- [J]
Output:Meter,Electricity:Zone:COMMUNITY_RM,hourly; !- [J]
Output:Meter:Cumulative,Electricity:Zone:COMMUNITY_RM,hourly; !- [J]
Output:Meter,InteriorLights:Electricity:Zone:COMMUNITY_RM,hourly; !- [J]
Output:Meter:Cumulative,InteriorLights:Electricity:Zone:COMMUNITY_RM,hourly; !- [J]
Output:Meter,Electricity:Zone:CORRIDOR,hourly; !- [J]
Output:Meter:Cumulative,Electricity:Zone:CORRIDOR,hourly; !- [J]
Output:Meter,InteriorLights:Electricity:Zone:CORRIDOR,hourly; !- [J]
Output:Meter:Cumulative,InteriorLights:Electricity:Zone:CORRIDOR,hourly; !- [J]
Output:Meter,Electricity:Zone:CORRIDOR_2,hourly; !- [J]
Output:Meter:Cumulative,Electricity:Zone:CORRIDOR_2,hourly; !- [J]
Output:Meter,InteriorLights:Electricity:Zone:CORRIDOR_2,hourly; !- [J]
Output:Meter:Cumulative,InteriorLights:Electricity:Zone:CORRIDOR_2,hourly; !- [J]
Output:Meter,Electricity:Zone:CORRIDOR_3,hourly; !- [J]
Output:Meter:Cumulative,Electricity:Zone:CORRIDOR_3,hourly; !- [J]
Output:Meter,InteriorLights:Electricity:Zone:CORRIDOR_3,hourly; !- [J]
Output:Meter:Cumulative,InteriorLights:Electricity:Zone:CORRIDOR_3,hourly; !- [J]
Output:Meter,Electricity:Zone:CORRIDOR_4,hourly; !- [J]
Output:Meter:Cumulative,Electricity:Zone:CORRIDOR_4,hourly; !- [J]
Output:Meter,InteriorLights:Electricity:Zone:CORRIDOR_4,hourly; !- [J]
Output:Meter:Cumulative,InteriorLights:Electricity:Zone:CORRIDOR_4,hourly; !- [J]
Output:Meter,Electricity:Zone:GARBAGE 1,hourly; !- [J]
Output:Meter:Cumulative,Electricity:Zone:GARBAGE 1,hourly; !- [J]
Output:Meter,InteriorLights:Electricity:Zone:GARBAGE 1,hourly; !- [J]
Output:Meter:Cumulative,InteriorLights:Electricity:Zone:GARBAGE 1,hourly; !- [J]
Output:Meter,Electricity:Zone:GYM 1,hourly; !- [J]
Output:Meter:Cumulative,Electricity:Zone:GYM 1,hourly; !- [J]
Output:Meter,InteriorLights:Electricity:Zone:GYM 1,hourly; !- [J]
Output:Meter:Cumulative,InteriorLights:Electricity:Zone:GYM 1,hourly; !- [J]
Output:Meter,Electricity:Zone:LOBBY_ENTRY,hourly; !- [J]
Output:Meter:Cumulative,Electricity:Zone:LOBBY_ENTRY,hourly; !- [J]
Output:Meter,InteriorLights:Electricity:Zone:LOBBY_ENTRY,hourly; !- [J]
Output:Meter:Cumulative,InteriorLights:Electricity:Zone:LOBBY_ENTRY,hourly; !- [J]
Output:Meter,Electricity:Zone:MAIL_SHIPPING,hourly; !- [J]
Output:Meter:Cumulative,Electricity:Zone:MAIL_SHIPPING,hourly; !- [J]
Output:Meter,InteriorLights:Electricity:Zone:MAIL_SHIPPING,hourly; !- [J]
Output:Meter:Cumulative,InteriorLights:Electricity:Zone:MAIL_SHIPPING,hourly; !- [J]
Output:Meter,Electricity:Zone:OFFICE 1,hourly; !- [J]
Output:Meter:Cumulative,Electricity:Zone:OFFICE 1,hourly; !- [J]
Output:Meter,InteriorLights:Electricity:Zone:OFFICE 1,hourly; !- [J]
Output:Meter:Cumulative,InteriorLights:Electricity:Zone:OFFICE 1,hourly; !- [J]
Output:Meter,Electricity:Zone:LT_RETAIL_1,hourly; !- [J]
Output:Meter:Cumulative,Electricity:Zone:LT_RETAIL_1,hourly; !- [J]
Output:Meter,InteriorLights:Electricity:Zone:LT_RETAIL_1,hourly; !- [J]
Output:Meter:Cumulative,InteriorLights:Electricity:Zone:LT_RETAIL_1,hourly; !- [J]
Output:Meter,Electricity:Zone:LT_RETAIL_2,hourly; !- [J]
Output:Meter:Cumulative,Electricity:Zone:LT_RETAIL_2,hourly; !- [J]
Output:Meter,InteriorLights:Electricity:Zone:LT_RETAIL_2,hourly; !- [J]
Output:Meter:Cumulative,InteriorLights:Electricity:Zone:LT_RETAIL_2,hourly; !- [J]
Output:Meter,Electricity:Zone:LT_RETAIL_3,hourly; !- [J]
Output:Meter:Cumulative,Electricity:Zone:LT_RETAIL_3,hourly; !- [J]
Output:Meter,InteriorLights:Electricity:Zone:LT_RETAIL_3,hourly; !- [J]
Output:Meter:Cumulative,InteriorLights:Electricity:Zone:LT_RETAIL_3,hourly; !- [J]
Output:Meter,Electricity:Zone:LT_RETAIL_4,hourly; !- [J]
Output:Meter:Cumulative,Electricity:Zone:LT_RETAIL_4,hourly; !- [J]
Output:Meter,InteriorLights:Electricity:Zone:LT_RETAIL_4,hourly; !- [J]
Output:Meter:Cumulative,InteriorLights:Electricity:Zone:LT_RETAIL_4,hourly; !- [J]
Output:Meter,Electricity:Zone:STAIR_1,hourly; !- [J]
Output:Meter:Cumulative,Electricity:Zone:STAIR_1,hourly; !- [J]
Output:Meter,InteriorLights:Electricity:Zone:STAIR_1,hourly; !- [J]
Output:Meter:Cumulative,InteriorLights:Electricity:Zone:STAIR_1,hourly; !- [J]
Output:Meter,Electricity:Zone:STAIR_2,hourly; !- [J]
Output:Meter:Cumulative,Electricity:Zone:STAIR_2,hourly; !- [J]
Output:Meter,InteriorLights:Electricity:Zone:STAIR_2,hourly; !- [J]
Output:Meter:Cumulative,InteriorLights:Electricity:Zone:STAIR_2,hourly; !- [J]
Output:Meter,Electricity:Zone:STAIRWELL_1_2,hourly; !- [J]
Output:Meter:Cumulative,Electricity:Zone:STAIRWELL_1_2,hourly; !- [J]
Output:Meter,InteriorLights:Electricity:Zone:STAIRWELL_1_2,hourly; !- [J]
Output:Meter:Cumulative,InteriorLights:Electricity:Zone:STAIRWELL_1_2,hourly; !- [J]
Output:Meter,Electricity:Zone:STAIRWELL_1_3,hourly; !- [J]
Output:Meter:Cumulative,Electricity:Zone:STAIRWELL_1_3,hourly; !- [J]
Output:Meter,InteriorLights:Electricity:Zone:STAIRWELL_1_3,hourly; !- [J]
Output:Meter:Cumulative,InteriorLights:Electricity:Zone:STAIRWELL_1_3,hourly; !- [J]
Output:Meter,Electricity:Zone:STAIRWELL_1_4,hourly; !- [J]
Output:Meter:Cumulative,Electricity:Zone:STAIRWELL_1_4,hourly; !- [J]
Output:Meter,InteriorLights:Electricity:Zone:STAIRWELL_1_4,hourly; !- [J]
Output:Meter:Cumulative,InteriorLights:Electricity:Zone:STAIRWELL_1_4,hourly; !- [J]
Output:Meter,Electricity:Zone:STAIRWELL_2_2,hourly; !- [J]
Output:Meter:Cumulative,Electricity:Zone:STAIRWELL_2_2,hourly; !- [J]
Output:Meter,InteriorLights:Electricity:Zone:STAIRWELL_2_2,hourly; !- [J]
Output:Meter:Cumulative,InteriorLights:Electricity:Zone:STAIRWELL_2_2,hourly; !- [J]
Output:Meter,Electricity:Zone:STAIRWELL_2_3,hourly; !- [J]
Output:Meter:Cumulative,Electricity:Zone:STAIRWELL_2_3,hourly; !- [J]
Output:Meter,InteriorLights:Electricity:Zone:STAIRWELL_2_3,hourly; !- [J]
Output:Meter:Cumulative,InteriorLights:Electricity:Zone:STAIRWELL_2_3,hourly; !- [J]
Output:Meter,Electricity:Zone:STAIRWELL_2_4,hourly; !- [J]
Output:Meter:Cumulative,Electricity:Zone:STAIRWELL_2_4,hourly; !- [J]
Output:Meter,InteriorLights:Electricity:Zone:STAIRWELL_2_4,hourly; !- [J]
Output:Meter:Cumulative,InteriorLights:Electricity:Zone:STAIRWELL_2_4,hourly; !- [J]
Output:Meter,InteriorEquipment:Electricity,hourly; !- [J]
Output:Meter:Cumulative,InteriorEquipment:Electricity,hourly; !- [J]
Output:Meter,InteriorEquipment:Electricity:Zone:0_BDRM_1_2,hourly; !- [J]
Output:Meter:Cumulative,InteriorEquipment:Electricity:Zone:0_BDRM_1_2,hourly; !- [J]
Output:Meter,res cd electric|Building Unit 001:InteriorEquipment:Electricity,hourly; !- [J]
Output:Meter:Cumulative,res cd electric|Building Unit 001:InteriorEquipment:Electricity,hourly; !- [J]
Output:Meter,res cw|Building Unit 001:InteriorEquipment:Electricity,hourly; !- [J]
Output:Meter:Cumulative,res cw|Building Unit 001:InteriorEquipment:Electricity,hourly; !- [J]
Output:Meter,res dw|Building Unit 001:InteriorEquipment:Electricity,hourly; !- [J]
Output:Meter:Cumulative,res dw|Building Unit 001:InteriorEquipment:Electricity,hourly; !- [J]
Output:Meter,res misc plug loads|Building Unit 001:InteriorEquipment:Electricity,hourly; !- [J]
Output:Meter:Cumulative,res misc plug loads|Building Unit 001:InteriorEquipment:Electricity,hourly; !- [J]
Output:Meter,res range electric|Building Unit 001:InteriorEquipment:Electricity,hourly; !- [J]
Output:Meter:Cumulative,res range electric|Building Unit 001:InteriorEquipment:Electricity,hourly; !- [J]
Output:Meter,res refrig|Building Unit 001:InteriorEquipment:Electricity,hourly; !- [J]
Output:Meter:Cumulative,res refrig|Building Unit 001:InteriorEquipment:Electricity,hourly; !- [J]
Output:Meter,InteriorEquipment:Electricity:Zone:0_BDRM_1_3,hourly; !- [J]
Output:Meter:Cumulative,InteriorEquipment:Electricity:Zone:0_BDRM_1_3,hourly; !- [J]
Output:Meter,res cd electric|Building Unit 005:InteriorEquipment:Electricity,hourly; !- [J]
Output:Meter:Cumulative,res cd electric|Building Unit 005:InteriorEquipment:Electricity,hourly; !- [J]
Output:Meter,res cw|Building Unit 005:InteriorEquipment:Electricity,hourly; !- [J]
Output:Meter:Cumulative,res cw|Building Unit 005:InteriorEquipment:Electricity,hourly; !- [J]
Output:Meter,res dw|Building Unit 005:InteriorEquipment:Electricity,hourly; !- [J]
Output:Meter:Cumulative,res dw|Building Unit 005:InteriorEquipment:Electricity,hourly; !- [J]
Output:Meter,res misc plug loads|Building Unit 005:InteriorEquipment:Electricity,hourly; !- [J]
Output:Meter:Cumulative,res misc plug loads|Building Unit 005:InteriorEquipment:Electricity,hourly; !- [J]
Output:Meter,res range electric|Building Unit 005:InteriorEquipment:Electricity,hourly; !- [J]
Output:Meter:Cumulative,res range electric|Building Unit 005:InteriorEquipment:Electricity,hourly; !- [J]
Output:Meter,res refrig|Building Unit 005:InteriorEquipment:Electricity,hourly; !- [J]
Output:Meter:Cumulative,res refrig|Building Unit 005:InteriorEquipment:Electricity,hourly; !- [J]
Output:Meter,InteriorEquipment:Electricity:Zone:0_BDRM_1_4,hourly; !- [J]
Output:Meter:Cumulative,InteriorEquipment:Electricity:Zone:0_BDRM_1_4,hourly; !- [J]
Output:Meter,res cd electric|Building Unit 009:InteriorEquipment:Electricity,hourly; !- [J]
Output:Meter:Cumulative,res cd electric|Building Unit 009:InteriorEquipment:Electricity,hourly; !- [J]
Output:Meter,res cw|Building Unit 009:InteriorEquipment:Electricity,hourly; !- [J]
Output:Meter:Cumulative,res cw|Building Unit 009:InteriorEquipment:Electricity,hourly; !- [J]
Output:Meter,res dw|Building Unit 009:InteriorEquipment:Electricity,hourly; !- [J]
Output:Meter:Cumulative,res dw|Building Unit 009:InteriorEquipment:Electricity,hourly; !- [J]
Output:Meter,res misc plug loads|Building Unit 009:InteriorEquipment:Electricity,hourly; !- [J]
Output:Meter:Cumulative,res misc plug loads|Building Unit 009:InteriorEquipment:Electricity,hourly; !- [J]
Output:Meter,res range electric|Building Unit 009:InteriorEquipment:Electricity,hourly; !- [J]
Output:Meter:Cumulative,res range electric|Building Unit 009:InteriorEquipment:Electricity,hourly; !- [J]
Output:Meter,res refrig|Building Unit 009:InteriorEquipment:Electricity,hourly; !- [J]
Output:Meter:Cumulative,res refrig|Building Unit 009:InteriorEquipment:Electricity,hourly; !- [J]
Output:Meter,InteriorEquipment:Electricity:Zone:0_BDRM_2_2,hourly; !- [J]
Output:Meter:Cumulative,InteriorEquipment:Electricity:Zone:0_BDRM_2_2,hourly; !- [J]
Output:Meter,res cd electric|Building Unit 002:InteriorEquipment:Electricity,hourly; !- [J]
Output:Meter:Cumulative,res cd electric|Building Unit 002:InteriorEquipment:Electricity,hourly; !- [J]
Output:Meter,res cw|Building Unit 002:InteriorEquipment:Electricity,hourly; !- [J]
Output:Meter:Cumulative,res cw|Building Unit 002:InteriorEquipment:Electricity,hourly; !- [J]
Output:Meter,res dw|Building Unit 002:InteriorEquipment:Electricity,hourly; !- [J]
Output:Meter:Cumulative,res dw|Building Unit 002:InteriorEquipment:Electricity,hourly; !- [J]
Output:Meter,res misc plug loads|Building Unit 002:InteriorEquipment:Electricity,hourly; !- [J]
Output:Meter:Cumulative,res misc plug loads|Building Unit 002:InteriorEquipment:Electricity,hourly; !- [J]
Output:Meter,res range electric|Building Unit 002:InteriorEquipment:Electricity,hourly; !- [J]
Output:Meter:Cumulative,res range electric|Building Unit 002:InteriorEquipment:Electricity,hourly; !- [J]
Output:Meter,res refrig|Building Unit 002:InteriorEquipment:Electricity,hourly; !- [J]
Output:Meter:Cumulative,res refrig|Building Unit 002:InteriorEquipment:Electricity,hourly; !- [J]
Output:Meter,InteriorEquipment:Electricity:Zone:0_BDRM_2_3,hourly; !- [J]
Output:Meter:Cumulative,InteriorEquipment:Electricity:Zone:0_BDRM_2_3,hourly; !- [J]
Output:Meter,res cd electric|Building Unit 006:InteriorEquipment:Electricity,hourly; !- [J]
Output:Meter:Cumulative,res cd electric|Building Unit 006:InteriorEquipment:Electricity,hourly; !- [J]
Output:Meter,res cw|Building Unit 006:InteriorEquipment:Electricity,hourly; !- [J]
Output:Meter:Cumulative,res cw|Building Unit 006:InteriorEquipment:Electricity,hourly; !- [J]
Output:Meter,res dw|Building Unit 006:InteriorEquipment:Electricity,hourly; !- [J]
Output:Meter:Cumulative,res dw|Building Unit 006:InteriorEquipment:Electricity,hourly; !- [J]
Output:Meter,res misc plug loads|Building Unit 006:InteriorEquipment:Electricity,hourly; !- [J]
Output:Meter:Cumulative,res misc plug loads|Building Unit 006:InteriorEquipment:Electricity,hourly; !- [J]
Output:Meter,res range electric|Building Unit 006:InteriorEquipment:Electricity,hourly; !- [J]
Output:Meter:Cumulative,res range electric|Building Unit 006:InteriorEquipment:Electricity,hourly; !- [J]
Output:Meter,res refrig|Building Unit 006:InteriorEquipment:Electricity,hourly; !- [J]
Output:Meter:Cumulative,res refrig|Building Unit 006:InteriorEquipment:Electricity,hourly; !- [J]
Output:Meter,InteriorEquipment:Electricity:Zone:0_BDRM_2_4,hourly; !- [J]
Output:Meter:Cumulative,InteriorEquipment:Electricity:Zone:0_BDRM_2_4,hourly; !- [J]
Output:Meter,res cd electric|Building Unit 010:InteriorEquipment:Electricity,hourly; !- [J]
Output:Meter:Cumulative,res cd electric|Building Unit 010:InteriorEquipment:Electricity,hourly; !- [J]
Output:Meter,res cw|Building Unit 010:InteriorEquipment:Electricity,hourly; !- [J]
Output:Meter:Cumulative,res cw|Building Unit 010:InteriorEquipment:Electricity,hourly; !- [J]
Output:Meter,res dw|Building Unit 010:InteriorEquipment:Electricity,hourly; !- [J]
Output:Meter:Cumulative,res dw|Building Unit 010:InteriorEquipment:Electricity,hourly; !- [J]
Output:Meter,res misc plug loads|Building Unit 010:InteriorEquipment:Electricity,hourly; !- [J]
Output:Meter:Cumulative,res misc plug loads|Building Unit 010:InteriorEquipment:Electricity,hourly; !- [J]
Output:Meter,res range electric|Building Unit 010:InteriorEquipment:Electricity,hourly; !- [J]
Output:Meter:Cumulative,res range electric|Building Unit 010:InteriorEquipment:Electricity,hourly; !- [J]
Output:Meter,res refrig|Building Unit 010:InteriorEquipment:Electricity,hourly; !- [J]
Output:Meter:Cumulative,res refrig|Building Unit 010:InteriorEquipment:Electricity,hourly; !- [J]
Output:Meter,InteriorEquipment:Electricity:Zone:0_BDRM_3_2,hourly; !- [J]
Output:Meter:Cumulative,InteriorEquipment:Electricity:Zone:0_BDRM_3_2,hourly; !- [J]
Output:Meter,res cd electric|Building Unit 003:InteriorEquipment:Electricity,hourly; !- [J]
Output:Meter:Cumulative,res cd electric|Building Unit 003:InteriorEquipment:Electricity,hourly; !- [J]
Output:Meter,res cw|Building Unit 003:InteriorEquipment:Electricity,hourly; !- [J]
Output:Meter:Cumulative,res cw|Building Unit 003:InteriorEquipment:Electricity,hourly; !- [J]
Output:Meter,res dw|Building Unit 003:InteriorEquipment:Electricity,hourly; !- [J]
Output:Meter:Cumulative,res dw|Building Unit 003:InteriorEquipment:Electricity,hourly; !- [J]
Output:Meter,res misc plug loads|Building Unit 003:InteriorEquipment:Electricity,hourly; !- [J]
Output:Meter:Cumulative,res misc plug loads|Building Unit 003:InteriorEquipment:Electricity,hourly; !- [J]
Output:Meter,res range electric|Building Unit 003:InteriorEquipment:Electricity,hourly; !- [J]
Output:Meter:Cumulative,res range electric|Building Unit 003:InteriorEquipment:Electricity,hourly; !- [J]
Output:Meter,res refrig|Building Unit 003:InteriorEquipment:Electricity,hourly; !- [J]
Output:Meter:Cumulative,res refrig|Building Unit 003:InteriorEquipment:Electricity,hourly; !- [J]
Output:Meter,InteriorEquipment:Electricity:Zone:0_BDRM_3_3,hourly; !- [J]
Output:Meter:Cumulative,InteriorEquipment:Electricity:Zone:0_BDRM_3_3,hourly; !- [J]
Output:Meter,res cd electric|Building Unit 007:InteriorEquipment:Electricity,hourly; !- [J]
Output:Meter:Cumulative,res cd electric|Building Unit 007:InteriorEquipment:Electricity,hourly; !- [J]
Output:Meter,res cw|Building Unit 007:InteriorEquipment:Electricity,hourly; !- [J]
Output:Meter:Cumulative,res cw|Building Unit 007:InteriorEquipment:Electricity,hourly; !- [J]
Output:Meter,res dw|Building Unit 007:InteriorEquipment:Electricity,hourly; !- [J]
Output:Meter:Cumulative,res dw|Building Unit 007:InteriorEquipment:Electricity,hourly; !- [J]
Output:Meter,res misc plug loads|Building Unit 007:InteriorEquipment:Electricity,hourly; !- [J]
Output:Meter:Cumulative,res misc plug loads|Building Unit 007:InteriorEquipment:Electricity,hourly; !- [J]
Output:Meter,res range electric|Building Unit 007:InteriorEquipment:Electricity,hourly; !- [J]
Output:Meter:Cumulative,res range electric|Building Unit 007:InteriorEquipment:Electricity,hourly; !- [J]
Output:Meter,res refrig|Building Unit 007:InteriorEquipment:Electricity,hourly; !- [J]
Output:Meter:Cumulative,res refrig|Building Unit 007:InteriorEquipment:Electricity,hourly; !- [J]
Output:Meter,InteriorEquipment:Electricity:Zone:0_BDRM_3_4,hourly; !- [J]
Output:Meter:Cumulative,InteriorEquipment:Electricity:Zone:0_BDRM_3_4,hourly; !- [J]
Output:Meter,res cd electric|Building Unit 011:InteriorEquipment:Electricity,hourly; !- [J]
Output:Meter:Cumulative,res cd electric|Building Unit 011:InteriorEquipment:Electricity,hourly; !- [J]
Output:Meter,res cw|Building Unit 011:InteriorEquipment:Electricity,hourly; !- [J]
Output:Meter:Cumulative,res cw|Building Unit 011:InteriorEquipment:Electricity,hourly; !- [J]
Output:Meter,res dw|Building Unit 011:InteriorEquipment:Electricity,hourly; !- [J]
Output:Meter:Cumulative,res dw|Building Unit 011:InteriorEquipment:Electricity,hourly; !- [J]
Output:Meter,res misc plug loads|Building Unit 011:InteriorEquipment:Electricity,hourly; !- [J]
Output:Meter:Cumulative,res misc plug loads|Building Unit 011:InteriorEquipment:Electricity,hourly; !- [J]
Output:Meter,res range electric|Building Unit 011:InteriorEquipment:Electricity,hourly; !- [J]
Output:Meter:Cumulative,res range electric|Building Unit 011:InteriorEquipment:Electricity,hourly; !- [J]
Output:Meter,res refrig|Building Unit 011:InteriorEquipment:Electricity,hourly; !- [J]
Output:Meter:Cumulative,res refrig|Building Unit 011:InteriorEquipment:Electricity,hourly; !- [J]
Output:Meter,InteriorEquipment:Electricity:Zone:0_BDRM_4_2,hourly; !- [J]
Output:Meter:Cumulative,InteriorEquipment:Electricity:Zone:0_BDRM_4_2,hourly; !- [J]
Output:Meter,res cd electric|Building Unit 004:InteriorEquipment:Electricity,hourly; !- [J]
Output:Meter:Cumulative,res cd electric|Building Unit 004:InteriorEquipment:Electricity,hourly; !- [J]
Output:Meter,res cw|Building Unit 004:InteriorEquipment:Electricity,hourly; !- [J]
Output:Meter:Cumulative,res cw|Building Unit 004:InteriorEquipment:Electricity,hourly; !- [J]
Output:Meter,res dw|Building Unit 004:InteriorEquipment:Electricity,hourly; !- [J]
Output:Meter:Cumulative,res dw|Building Unit 004:InteriorEquipment:Electricity,hourly; !- [J]
Output:Meter,res misc plug loads|Building Unit 004:InteriorEquipment:Electricity,hourly; !- [J]
Output:Meter:Cumulative,res misc plug loads|Building Unit 004:InteriorEquipment:Electricity,hourly; !- [J]
Output:Meter,res range electric|Building Unit 004:InteriorEquipment:Electricity,hourly; !- [J]
Output:Meter:Cumulative,res range electric|Building Unit 004:InteriorEquipment:Electricity,hourly; !- [J]
Output:Meter,res refrig|Building Unit 004:InteriorEquipment:Electricity,hourly; !- [J]
Output:Meter:Cumulative,res refrig|Building Unit 004:InteriorEquipment:Electricity,hourly; !- [J]
Output:Meter,InteriorEquipment:Electricity:Zone:0_BDRM_4_3,hourly; !- [J]
Output:Meter:Cumulative,InteriorEquipment:Electricity:Zone:0_BDRM_4_3,hourly; !- [J]
Output:Meter,res cd electric|Building Unit 008:InteriorEquipment:Electricity,hourly; !- [J]
Output:Meter:Cumulative,res cd electric|Building Unit 008:InteriorEquipment:Electricity,hourly; !- [J]
Output:Meter,res cw|Building Unit 008:InteriorEquipment:Electricity,hourly; !- [J]
Output:Meter:Cumulative,res cw|Building Unit 008:InteriorEquipment:Electricity,hourly; !- [J]
Output:Meter,res dw|Building Unit 008:InteriorEquipment:Electricity,hourly; !- [J]
Output:Meter:Cumulative,res dw|Building Unit 008:InteriorEquipment:Electricity,hourly; !- [J]
Output:Meter,res misc plug loads|Building Unit 008:InteriorEquipment:Electricity,hourly; !- [J]
Output:Meter:Cumulative,res misc plug loads|Building Unit 008:InteriorEquipment:Electricity,hourly; !- [J]
Output:Meter,res range electric|Building Unit 008:InteriorEquipment:Electricity,hourly; !- [J]
Output:Meter:Cumulative,res range electric|Building Unit 008:InteriorEquipment:Electricity,hourly; !- [J]
Output:Meter,res refrig|Building Unit 008:InteriorEquipment:Electricity,hourly; !- [J]
Output:Meter:Cumulative,res refrig|Building Unit 008:InteriorEquipment:Electricity,hourly; !- [J]
Output:Meter,InteriorEquipment:Electricity:Zone:0_BDRM_4_4,hourly; !- [J]
Output:Meter:Cumulative,InteriorEquipment:Electricity:Zone:0_BDRM_4_4,hourly; !- [J]
Output:Meter,res cd electric|Building Unit 012:InteriorEquipment:Electricity,hourly; !- [J]
Output:Meter:Cumulative,res cd electric|Building Unit 012:InteriorEquipment:Electricity,hourly; !- [J]
Output:Meter,res cw|Building Unit 012:InteriorEquipment:Electricity,hourly; !- [J]
Output:Meter:Cumulative,res cw|Building Unit 012:InteriorEquipment:Electricity,hourly; !- [J]
Output:Meter,res dw|Building Unit 012:InteriorEquipment:Electricity,hourly; !- [J]
Output:Meter:Cumulative,res dw|Building Unit 012:InteriorEquipment:Electricity,hourly; !- [J]
Output:Meter,res misc plug loads|Building Unit 012:InteriorEquipment:Electricity,hourly; !- [J]
Output:Meter:Cumulative,res misc plug loads|Building Unit 012:InteriorEquipment:Electricity,hourly; !- [J]
Output:Meter,res range electric|Building Unit 012:InteriorEquipment:Electricity,hourly; !- [J]
Output:Meter:Cumulative,res range electric|Building Unit 012:InteriorEquipment:Electricity,hourly; !- [J]
Output:Meter,res refrig|Building Unit 012:InteriorEquipment:Electricity,hourly; !- [J]
Output:Meter:Cumulative,res refrig|Building Unit 012:InteriorEquipment:Electricity,hourly; !- [J]
Output:Meter,InteriorEquipment:Electricity:Zone:1_BDRM_1_2,hourly; !- [J]
Output:Meter:Cumulative,InteriorEquipment:Electricity:Zone:1_BDRM_1_2,hourly; !- [J]
Output:Meter,res cd electric|Building Unit 101:InteriorEquipment:Electricity,hourly; !- [J]
Output:Meter:Cumulative,res cd electric|Building Unit 101:InteriorEquipment:Electricity,hourly; !- [J]
Output:Meter,res cw|Building Unit 101:InteriorEquipment:Electricity,hourly; !- [J]
Output:Meter:Cumulative,res cw|Building Unit 101:InteriorEquipment:Electricity,hourly; !- [J]
Output:Meter,res dw|Building Unit 101:InteriorEquipment:Electricity,hourly; !- [J]
Output:Meter:Cumulative,res dw|Building Unit 101:InteriorEquipment:Electricity,hourly; !- [J]
Output:Meter,res misc plug loads|Building Unit 101:InteriorEquipment:Electricity,hourly; !- [J]
Output:Meter:Cumulative,res misc plug loads|Building Unit 101:InteriorEquipment:Electricity,hourly; !- [J]
Output:Meter,res range electric|Building Unit 101:InteriorEquipment:Electricity,hourly; !- [J]
Output:Meter:Cumulative,res range electric|Building Unit 101:InteriorEquipment:Electricity,hourly; !- [J]
Output:Meter,res refrig|Building Unit 101:InteriorEquipment:Electricity,hourly; !- [J]
Output:Meter:Cumulative,res refrig|Building Unit 101:InteriorEquipment:Electricity,hourly; !- [J]
Output:Meter,InteriorEquipment:Electricity:Zone:1_BDRM_1_3,hourly; !- [J]
Output:Meter:Cumulative,InteriorEquipment:Electricity:Zone:1_BDRM_1_3,hourly; !- [J]
Output:Meter,res cd electric|Building Unit 108:InteriorEquipment:Electricity,hourly; !- [J]
Output:Meter:Cumulative,res cd electric|Building Unit 108:InteriorEquipment:Electricity,hourly; !- [J]
Output:Meter,res cw|Building Unit 108:InteriorEquipment:Electricity,hourly; !- [J]
Output:Meter:Cumulative,res cw|Building Unit 108:InteriorEquipment:Electricity,hourly; !- [J]
Output:Meter,res dw|Building Unit 108:InteriorEquipment:Electricity,hourly; !- [J]
Output:Meter:Cumulative,res dw|Building Unit 108:InteriorEquipment:Electricity,hourly; !- [J]
Output:Meter,res misc plug loads|Building Unit 108:InteriorEquipment:Electricity,hourly; !- [J]
Output:Meter:Cumulative,res misc plug loads|Building Unit 108:InteriorEquipment:Electricity,hourly; !- [J]
Output:Meter,res range electric|Building Unit 108:InteriorEquipment:Electricity,hourly; !- [J]
Output:Meter:Cumulative,res range electric|Building Unit 108:InteriorEquipment:Electricity,hourly; !- [J]
Output:Meter,res refrig|Building Unit 108:InteriorEquipment:Electricity,hourly; !- [J]
Output:Meter:Cumulative,res refrig|Building Unit 108:InteriorEquipment:Electricity,hourly; !- [J]
Output:Meter,InteriorEquipment:Electricity:Zone:1_BDRM_1_4,hourly; !- [J]
Output:Meter:Cumulative,InteriorEquipment:Electricity:Zone:1_BDRM_1_4,hourly; !- [J]
Output:Meter,res cd electric|Building Unit 115:InteriorEquipment:Electricity,hourly; !- [J]
Output:Meter:Cumulative,res cd electric|Building Unit 115:InteriorEquipment:Electricity,hourly; !- [J]
Output:Meter,res cw|Building Unit 115:InteriorEquipment:Electricity,hourly; !- [J]
Output:Meter:Cumulative,res cw|Building Unit 115:InteriorEquipment:Electricity,hourly; !- [J]
Output:Meter,res dw|Building Unit 115:InteriorEquipment:Electricity,hourly; !- [J]
Output:Meter:Cumulative,res dw|Building Unit 115:InteriorEquipment:Electricity,hourly; !- [J]
Output:Meter,res misc plug loads|Building Unit 115:InteriorEquipment:Electricity,hourly; !- [J]
Output:Meter:Cumulative,res misc plug loads|Building Unit 115:InteriorEquipment:Electricity,hourly; !- [J]
Output:Meter,res range electric|Building Unit 115:InteriorEquipment:Electricity,hourly; !- [J]
Output:Meter:Cumulative,res range electric|Building Unit 115:InteriorEquipment:Electricity,hourly; !- [J]
Output:Meter,res refrig|Building Unit 115:InteriorEquipment:Electricity,hourly; !- [J]
Output:Meter:Cumulative,res refrig|Building Unit 115:InteriorEquipment:Electricity,hourly; !- [J]
Output:Meter,InteriorEquipment:Electricity:Zone:1_BDRM_2_2,hourly; !- [J]
Output:Meter:Cumulative,InteriorEquipment:Electricity:Zone:1_BDRM_2_2,hourly; !- [J]
Output:Meter,res cd electric|Building Unit 102:InteriorEquipment:Electricity,hourly; !- [J]
Output:Meter:Cumulative,res cd electric|Building Unit 102:InteriorEquipment:Electricity,hourly; !- [J]
Output:Meter,res cw|Building Unit 102:InteriorEquipment:Electricity,hourly; !- [J]
Output:Meter:Cumulative,res cw|Building Unit 102:InteriorEquipment:Electricity,hourly; !- [J]
Output:Meter,res dw|Building Unit 102:InteriorEquipment:Electricity,hourly; !- [J]
Output:Meter:Cumulative,res dw|Building Unit 102:InteriorEquipment:Electricity,hourly; !- [J]
Output:Meter,res misc plug loads|Building Unit 102:InteriorEquipment:Electricity,hourly; !- [J]
Output:Meter:Cumulative,res misc plug loads|Building Unit 102:InteriorEquipment:Electricity,hourly; !- [J]
Output:Meter,res range electric|Building Unit 102:InteriorEquipment:Electricity,hourly; !- [J]
Output:Meter:Cumulative,res range electric|Building Unit 102:InteriorEquipment:Electricity,hourly; !- [J]
Output:Meter,res refrig|Building Unit 102:InteriorEquipment:Electricity,hourly; !- [J]
Output:Meter:Cumulative,res refrig|Building Unit 102:InteriorEquipment:Electricity,hourly; !- [J]
Output:Meter,InteriorEquipment:Electricity:Zone:1_BDRM_2_3,hourly; !- [J]
Output:Meter:Cumulative,InteriorEquipment:Electricity:Zone:1_BDRM_2_3,hourly; !- [J]
Output:Meter,res cd electric|Building Unit 109:InteriorEquipment:Electricity,hourly; !- [J]
Output:Meter:Cumulative,res cd electric|Building Unit 109:InteriorEquipment:Electricity,hourly; !- [J]
Output:Meter,res cw|Building Unit 109:InteriorEquipment:Electricity,hourly; !- [J]
Output:Meter:Cumulative,res cw|Building Unit 109:InteriorEquipment:Electricity,hourly; !- [J]
Output:Meter,res dw|Building Unit 109:InteriorEquipment:Electricity,hourly; !- [J]
Output:Meter:Cumulative,res dw|Building Unit 109:InteriorEquipment:Electricity,hourly; !- [J]
Output:Meter,res misc plug loads|Building Unit 109:InteriorEquipment:Electricity,hourly; !- [J]
Output:Meter:Cumulative,res misc plug loads|Building Unit 109:InteriorEquipment:Electricity,hourly; !- [J]
Output:Meter,res range electric|Building Unit 109:InteriorEquipment:Electricity,hourly; !- [J]
Output:Meter:Cumulative,res range electric|Building Unit 109:InteriorEquipment:Electricity,hourly; !- [J]
Output:Meter,res refrig|Building Unit 109:InteriorEquipment:Electricity,hourly; !- [J]
Output:Meter:Cumulative,res refrig|Building Unit 109:InteriorEquipment:Electricity,hourly; !- [J]
Output:Meter,InteriorEquipment:Electricity:Zone:1_BDRM_2_4,hourly; !- [J]
Output:Meter:Cumulative,InteriorEquipment:Electricity:Zone:1_BDRM_2_4,hourly; !- [J]
Output:Meter,res cd electric|Building Unit 116:InteriorEquipment:Electricity,hourly; !- [J]
Output:Meter:Cumulative,res cd electric|Building Unit 116:InteriorEquipment:Electricity,hourly; !- [J]
Output:Meter,res cw|Building Unit 116:InteriorEquipment:Electricity,hourly; !- [J]
Output:Meter:Cumulative,res cw|Building Unit 116:InteriorEquipment:Electricity,hourly; !- [J]
Output:Meter,res dw|Building Unit 116:InteriorEquipment:Electricity,hourly; !- [J]
Output:Meter:Cumulative,res dw|Building Unit 116:InteriorEquipment:Electricity,hourly; !- [J]
Output:Meter,res misc plug loads|Building Unit 116:InteriorEquipment:Electricity,hourly; !- [J]
Output:Meter:Cumulative,res misc plug loads|Building Unit 116:InteriorEquipment:Electricity,hourly; !- [J]
Output:Meter,res range electric|Building Unit 116:InteriorEquipment:Electricity,hourly; !- [J]
Output:Meter:Cumulative,res range electric|Building Unit 116:InteriorEquipment:Electricity,hourly; !- [J]
Output:Meter,res refrig|Building Unit 116:InteriorEquipment:Electricity,hourly; !- [J]
Output:Meter:Cumulative,res refrig|Building Unit 116:InteriorEquipment:Electricity,hourly; !- [J]
Output:Meter,InteriorEquipment:Electricity:Zone:1_BDRM_3_2,hourly; !- [J]
Output:Meter:Cumulative,InteriorEquipment:Electricity:Zone:1_BDRM_3_2,hourly; !- [J]
Output:Meter,res cd electric|Building Unit 103:InteriorEquipment:Electricity,hourly; !- [J]
Output:Meter:Cumulative,res cd electric|Building Unit 103:InteriorEquipment:Electricity,hourly; !- [J]
Output:Meter,res cw|Building Unit 103:InteriorEquipment:Electricity,hourly; !- [J]
Output:Meter:Cumulative,res cw|Building Unit 103:InteriorEquipment:Electricity,hourly; !- [J]
Output:Meter,res dw|Building Unit 103:InteriorEquipment:Electricity,hourly; !- [J]
Output:Meter:Cumulative,res dw|Building Unit 103:InteriorEquipment:Electricity,hourly; !- [J]
Output:Meter,res misc plug loads|Building Unit 103:InteriorEquipment:Electricity,hourly; !- [J]
Output:Meter:Cumulative,res misc plug loads|Building Unit 103:InteriorEquipment:Electricity,hourly; !- [J]
Output:Meter,res range electric|Building Unit 103:InteriorEquipment:Electricity,hourly; !- [J]
Output:Meter:Cumulative,res range electric|Building Unit 103:InteriorEquipment:Electricity,hourly; !- [J]
Output:Meter,res refrig|Building Unit 103:InteriorEquipment:Electricity,hourly; !- [J]
Output:Meter:Cumulative,res refrig|Building Unit 103:InteriorEquipment:Electricity,hourly; !- [J]
Output:Meter,InteriorEquipment:Electricity:Zone:1_BDRM_3_3,hourly; !- [J]
Output:Meter:Cumulative,InteriorEquipment:Electricity:Zone:1_BDRM_3_3,hourly; !- [J]
Output:Meter,res cd electric|Building Unit 110:InteriorEquipment:Electricity,hourly; !- [J]
Output:Meter:Cumulative,res cd electric|Building Unit 110:InteriorEquipment:Electricity,hourly; !- [J]
Output:Meter,res cw|Building Unit 110:InteriorEquipment:Electricity,hourly; !- [J]
Output:Meter:Cumulative,res cw|Building Unit 110:InteriorEquipment:Electricity,hourly; !- [J]
Output:Meter,res dw|Building Unit 110:InteriorEquipment:Electricity,hourly; !- [J]
Output:Meter:Cumulative,res dw|Building Unit 110:InteriorEquipment:Electricity,hourly; !- [J]
Output:Meter,res misc plug loads|Building Unit 110:InteriorEquipment:Electricity,hourly; !- [J]
Output:Meter:Cumulative,res misc plug loads|Building Unit 110:InteriorEquipment:Electricity,hourly; !- [J]
Output:Meter,res range electric|Building Unit 110:InteriorEquipment:Electricity,hourly; !- [J]
Output:Meter:Cumulative,res range electric|Building Unit 110:InteriorEquipment:Electricity,hourly; !- [J]
Output:Meter,res refrig|Building Unit 110:InteriorEquipment:Electricity,hourly; !- [J]
Output:Meter:Cumulative,res refrig|Building Unit 110:InteriorEquipment:Electricity,hourly; !- [J]
Output:Meter,InteriorEquipment:Electricity:Zone:1_BDRM_3_4,hourly; !- [J]
Output:Meter:Cumulative,InteriorEquipment:Electricity:Zone:1_BDRM_3_4,hourly; !- [J]
Output:Meter,res cd electric|Building Unit 117:InteriorEquipment:Electricity,hourly; !- [J]
Output:Meter:Cumulative,res cd electric|Building Unit 117:InteriorEquipment:Electricity,hourly; !- [J]
Output:Meter,res cw|Building Unit 117:InteriorEquipment:Electricity,hourly; !- [J]
Output:Meter:Cumulative,res cw|Building Unit 117:InteriorEquipment:Electricity,hourly; !- [J]
Output:Meter,res dw|Building Unit 117:InteriorEquipment:Electricity,hourly; !- [J]
Output:Meter:Cumulative,res dw|Building Unit 117:InteriorEquipment:Electricity,hourly; !- [J]
Output:Meter,res misc plug loads|Building Unit 117:InteriorEquipment:Electricity,hourly; !- [J]
Output:Meter:Cumulative,res misc plug loads|Building Unit 117:InteriorEquipment:Electricity,hourly; !- [J]
Output:Meter,res range electric|Building Unit 117:InteriorEquipment:Electricity,hourly; !- [J]
Output:Meter:Cumulative,res range electric|Building Unit 117:InteriorEquipment:Electricity,hourly; !- [J]
Output:Meter,res refrig|Building Unit 117:InteriorEquipment:Electricity,hourly; !- [J]
Output:Meter:Cumulative,res refrig|Building Unit 117:InteriorEquipment:Electricity,hourly; !- [J]
Output:Meter,InteriorEquipment:Electricity:Zone:1_BDRM_4_2,hourly; !- [J]
Output:Meter:Cumulative,InteriorEquipment:Electricity:Zone:1_BDRM_4_2,hourly; !- [J]
Output:Meter,res cd electric|Building Unit 104:InteriorEquipment:Electricity,hourly; !- [J]
Output:Meter:Cumulative,res cd electric|Building Unit 104:InteriorEquipment:Electricity,hourly; !- [J]
Output:Meter,res cw|Building Unit 104:InteriorEquipment:Electricity,hourly; !- [J]
Output:Meter:Cumulative,res cw|Building Unit 104:InteriorEquipment:Electricity,hourly; !- [J]
Output:Meter,res dw|Building Unit 104:InteriorEquipment:Electricity,hourly; !- [J]
Output:Meter:Cumulative,res dw|Building Unit 104:InteriorEquipment:Electricity,hourly; !- [J]
Output:Meter,res misc plug loads|Building Unit 104:InteriorEquipment:Electricity,hourly; !- [J]
Output:Meter:Cumulative,res misc plug loads|Building Unit 104:InteriorEquipment:Electricity,hourly; !- [J]
Output:Meter,res range electric|Building Unit 104:InteriorEquipment:Electricity,hourly; !- [J]
Output:Meter:Cumulative,res range electric|Building Unit 104:InteriorEquipment:Electricity,hourly; !- [J]
Output:Meter,res refrig|Building Unit 104:InteriorEquipment:Electricity,hourly; !- [J]
Output:Meter:Cumulative,res refrig|Building Unit 104:InteriorEquipment:Electricity,hourly; !- [J]
Output:Meter,InteriorEquipment:Electricity:Zone:1_BDRM_4_3,hourly; !- [J]
Output:Meter:Cumulative,InteriorEquipment:Electricity:Zone:1_BDRM_4_3,hourly; !- [J]
Output:Meter,res cd electric|Building Unit 111:InteriorEquipment:Electricity,hourly; !- [J]
Output:Meter:Cumulative,res cd electric|Building Unit 111:InteriorEquipment:Electricity,hourly; !- [J]
Output:Meter,res cw|Building Unit 111:InteriorEquipment:Electricity,hourly; !- [J]
Output:Meter:Cumulative,res cw|Building Unit 111:InteriorEquipment:Electricity,hourly; !- [J]
Output:Meter,res dw|Building Unit 111:InteriorEquipment:Electricity,hourly; !- [J]
Output:Meter:Cumulative,res dw|Building Unit 111:InteriorEquipment:Electricity,hourly; !- [J]
Output:Meter,res misc plug loads|Building Unit 111:InteriorEquipment:Electricity,hourly; !- [J]
Output:Meter:Cumulative,res misc plug loads|Building Unit 111:InteriorEquipment:Electricity,hourly; !- [J]
Output:Meter,res range electric|Building Unit 111:InteriorEquipment:Electricity,hourly; !- [J]
Output:Meter:Cumulative,res range electric|Building Unit 111:InteriorEquipment:Electricity,hourly; !- [J]
Output:Meter,res refrig|Building Unit 111:InteriorEquipment:Electricity,hourly; !- [J]
Output:Meter:Cumulative,res refrig|Building Unit 111:InteriorEquipment:Electricity,hourly; !- [J]
Output:Meter,InteriorEquipment:Electricity:Zone:1_BDRM_4_4,hourly; !- [J]
Output:Meter:Cumulative,InteriorEquipment:Electricity:Zone:1_BDRM_4_4,hourly; !- [J]
Output:Meter,res cd electric|Building Unit 118:InteriorEquipment:Electricity,hourly; !- [J]
Output:Meter:Cumulative,res cd electric|Building Unit 118:InteriorEquipment:Electricity,hourly; !- [J]
Output:Meter,res cw|Building Unit 118:InteriorEquipment:Electricity,hourly; !- [J]
Output:Meter:Cumulative,res cw|Building Unit 118:InteriorEquipment:Electricity,hourly; !- [J]
Output:Meter,res dw|Building Unit 118:InteriorEquipment:Electricity,hourly; !- [J]
Output:Meter:Cumulative,res dw|Building Unit 118:InteriorEquipment:Electricity,hourly; !- [J]
Output:Meter,res misc plug loads|Building Unit 118:InteriorEquipment:Electricity,hourly; !- [J]
Output:Meter:Cumulative,res misc plug loads|Building Unit 118:InteriorEquipment:Electricity,hourly; !- [J]
Output:Meter,res range electric|Building Unit 118:InteriorEquipment:Electricity,hourly; !- [J]
Output:Meter:Cumulative,res range electric|Building Unit 118:InteriorEquipment:Electricity,hourly; !- [J]
Output:Meter,res refrig|Building Unit 118:InteriorEquipment:Electricity,hourly; !- [J]
Output:Meter:Cumulative,res refrig|Building Unit 118:InteriorEquipment:Electricity,hourly; !- [J]
Output:Meter,InteriorEquipment:Electricity:Zone:1_BDRM_5_2,hourly; !- [J]
Output:Meter:Cumulative,InteriorEquipment:Electricity:Zone:1_BDRM_5_2,hourly; !- [J]
Output:Meter,res cd electric|Building Unit 105:InteriorEquipment:Electricity,hourly; !- [J]
Output:Meter:Cumulative,res cd electric|Building Unit 105:InteriorEquipment:Electricity,hourly; !- [J]
Output:Meter,res cw|Building Unit 105:InteriorEquipment:Electricity,hourly; !- [J]
Output:Meter:Cumulative,res cw|Building Unit 105:InteriorEquipment:Electricity,hourly; !- [J]
Output:Meter,res dw|Building Unit 105:InteriorEquipment:Electricity,hourly; !- [J]
Output:Meter:Cumulative,res dw|Building Unit 105:InteriorEquipment:Electricity,hourly; !- [J]
Output:Meter,res misc plug loads|Building Unit 105:InteriorEquipment:Electricity,hourly; !- [J]
Output:Meter:Cumulative,res misc plug loads|Building Unit 105:InteriorEquipment:Electricity,hourly; !- [J]
Output:Meter,res range electric|Building Unit 105:InteriorEquipment:Electricity,hourly; !- [J]
Output:Meter:Cumulative,res range electric|Building Unit 105:InteriorEquipment:Electricity,hourly; !- [J]
Output:Meter,res refrig|Building Unit 105:InteriorEquipment:Electricity,hourly; !- [J]
Output:Meter:Cumulative,res refrig|Building Unit 105:InteriorEquipment:Electricity,hourly; !- [J]
Output:Meter,InteriorEquipment:Electricity:Zone:1_BDRM_5_3,hourly; !- [J]
Output:Meter:Cumulative,InteriorEquipment:Electricity:Zone:1_BDRM_5_3,hourly; !- [J]
Output:Meter,res cd electric|Building Unit 112:InteriorEquipment:Electricity,hourly; !- [J]
Output:Meter:Cumulative,res cd electric|Building Unit 112:InteriorEquipment:Electricity,hourly; !- [J]
Output:Meter,res cw|Building Unit 112:InteriorEquipment:Electricity,hourly; !- [J]
Output:Meter:Cumulative,res cw|Building Unit 112:InteriorEquipment:Electricity,hourly; !- [J]
Output:Meter,res dw|Building Unit 112:InteriorEquipment:Electricity,hourly; !- [J]
Output:Meter:Cumulative,res dw|Building Unit 112:InteriorEquipment:Electricity,hourly; !- [J]
Output:Meter,res misc plug loads|Building Unit 112:InteriorEquipment:Electricity,hourly; !- [J]
Output:Meter:Cumulative,res misc plug loads|Building Unit 112:InteriorEquipment:Electricity,hourly; !- [J]
Output:Meter,res range electric|Building Unit 112:InteriorEquipment:Electricity,hourly; !- [J]
Output:Meter:Cumulative,res range electric|Building Unit 112:InteriorEquipment:Electricity,hourly; !- [J]
Output:Meter,res refrig|Building Unit 112:InteriorEquipment:Electricity,hourly; !- [J]
Output:Meter:Cumulative,res refrig|Building Unit 112:InteriorEquipment:Electricity,hourly; !- [J]
Output:Meter,InteriorEquipment:Electricity:Zone:1_BDRM_5_4,hourly; !- [J]
Output:Meter:Cumulative,InteriorEquipment:Electricity:Zone:1_BDRM_5_4,hourly; !- [J]
Output:Meter,res cd electric|Building Unit 119:InteriorEquipment:Electricity,hourly; !- [J]
Output:Meter:Cumulative,res cd electric|Building Unit 119:InteriorEquipment:Electricity,hourly; !- [J]
Output:Meter,res cw|Building Unit 119:InteriorEquipment:Electricity,hourly; !- [J]
Output:Meter:Cumulative,res cw|Building Unit 119:InteriorEquipment:Electricity,hourly; !- [J]
Output:Meter,res dw|Building Unit 119:InteriorEquipment:Electricity,hourly; !- [J]
Output:Meter:Cumulative,res dw|Building Unit 119:InteriorEquipment:Electricity,hourly; !- [J]
Output:Meter,res misc plug loads|Building Unit 119:InteriorEquipment:Electricity,hourly; !- [J]
Output:Meter:Cumulative,res misc plug loads|Building Unit 119:InteriorEquipment:Electricity,hourly; !- [J]
Output:Meter,res range electric|Building Unit 119:InteriorEquipment:Electricity,hourly; !- [J]
Output:Meter:Cumulative,res range electric|Building Unit 119:InteriorEquipment:Electricity,hourly; !- [J]
Output:Meter,res refrig|Building Unit 119:InteriorEquipment:Electricity,hourly; !- [J]
Output:Meter:Cumulative,res refrig|Building Unit 119:InteriorEquipment:Electricity,hourly; !- [J]
Output:Meter,InteriorEquipment:Electricity:Zone:1_BDRM_6_2,hourly; !- [J]
Output:Meter:Cumulative,InteriorEquipment:Electricity:Zone:1_BDRM_6_2,hourly; !- [J]
Output:Meter,res cd electric|Building Unit 106:InteriorEquipment:Electricity,hourly; !- [J]
Output:Meter:Cumulative,res cd electric|Building Unit 106:InteriorEquipment:Electricity,hourly; !- [J]
Output:Meter,res cw|Building Unit 106:InteriorEquipment:Electricity,hourly; !- [J]
Output:Meter:Cumulative,res cw|Building Unit 106:InteriorEquipment:Electricity,hourly; !- [J]
Output:Meter,res dw|Building Unit 106:InteriorEquipment:Electricity,hourly; !- [J]
Output:Meter:Cumulative,res dw|Building Unit 106:InteriorEquipment:Electricity,hourly; !- [J]
Output:Meter,res misc plug loads|Building Unit 106:InteriorEquipment:Electricity,hourly; !- [J]
Output:Meter:Cumulative,res misc plug loads|Building Unit 106:InteriorEquipment:Electricity,hourly; !- [J]
Output:Meter,res range electric|Building Unit 106:InteriorEquipment:Electricity,hourly; !- [J]
Output:Meter:Cumulative,res range electric|Building Unit 106:InteriorEquipment:Electricity,hourly; !- [J]
Output:Meter,res refrig|Building Unit 106:InteriorEquipment:Electricity,hourly; !- [J]
Output:Meter:Cumulative,res refrig|Building Unit 106:InteriorEquipment:Electricity,hourly; !- [J]
Output:Meter,InteriorEquipment:Electricity:Zone:1_BDRM_6_3,hourly; !- [J]
Output:Meter:Cumulative,InteriorEquipment:Electricity:Zone:1_BDRM_6_3,hourly; !- [J]
Output:Meter,res cd electric|Building Unit 113:InteriorEquipment:Electricity,hourly; !- [J]
Output:Meter:Cumulative,res cd electric|Building Unit 113:InteriorEquipment:Electricity,hourly; !- [J]
Output:Meter,res cw|Building Unit 113:InteriorEquipment:Electricity,hourly; !- [J]
Output:Meter:Cumulative,res cw|Building Unit 113:InteriorEquipment:Electricity,hourly; !- [J]
Output:Meter,res dw|Building Unit 113:InteriorEquipment:Electricity,hourly; !- [J]
Output:Meter:Cumulative,res dw|Building Unit 113:InteriorEquipment:Electricity,hourly; !- [J]
Output:Meter,res misc plug loads|Building Unit 113:InteriorEquipment:Electricity,hourly; !- [J]
Output:Meter:Cumulative,res misc plug loads|Building Unit 113:InteriorEquipment:Electricity,hourly; !- [J]
Output:Meter,res range electric|Building Unit 113:InteriorEquipment:Electricity,hourly; !- [J]
Output:Meter:Cumulative,res range electric|Building Unit 113:InteriorEquipment:Electricity,hourly; !- [J]
Output:Meter,res refrig|Building Unit 113:InteriorEquipment:Electricity,hourly; !- [J]
Output:Meter:Cumulative,res refrig|Building Unit 113:InteriorEquipment:Electricity,hourly; !- [J]
Output:Meter,InteriorEquipment:Electricity:Zone:1_BDRM_6_4,hourly; !- [J]
Output:Meter:Cumulative,InteriorEquipment:Electricity:Zone:1_BDRM_6_4,hourly; !- [J]
Output:Meter,res cd electric|Building Unit 120:InteriorEquipment:Electricity,hourly; !- [J]
Output:Meter:Cumulative,res cd electric|Building Unit 120:InteriorEquipment:Electricity,hourly; !- [J]
Output:Meter,res cw|Building Unit 120:InteriorEquipment:Electricity,hourly; !- [J]
Output:Meter:Cumulative,res cw|Building Unit 120:InteriorEquipment:Electricity,hourly; !- [J]
Output:Meter,res dw|Building Unit 120:InteriorEquipment:Electricity,hourly; !- [J]
Output:Meter:Cumulative,res dw|Building Unit 120:InteriorEquipment:Electricity,hourly; !- [J]
Output:Meter,res misc plug loads|Building Unit 120:InteriorEquipment:Electricity,hourly; !- [J]
Output:Meter:Cumulative,res misc plug loads|Building Unit 120:InteriorEquipment:Electricity,hourly; !- [J]
Output:Meter,res range electric|Building Unit 120:InteriorEquipment:Electricity,hourly; !- [J]
Output:Meter:Cumulative,res range electric|Building Unit 120:InteriorEquipment:Electricity,hourly; !- [J]
Output:Meter,res refrig|Building Unit 120:InteriorEquipment:Electricity,hourly; !- [J]
Output:Meter:Cumulative,res refrig|Building Unit 120:InteriorEquipment:Electricity,hourly; !- [J]
Output:Meter,InteriorEquipment:Electricity:Zone:1_BDRM_7_2,hourly; !- [J]
Output:Meter:Cumulative,InteriorEquipment:Electricity:Zone:1_BDRM_7_2,hourly; !- [J]
Output:Meter,res cd electric|Building Unit 107:InteriorEquipment:Electricity,hourly; !- [J]
Output:Meter:Cumulative,res cd electric|Building Unit 107:InteriorEquipment:Electricity,hourly; !- [J]
Output:Meter,res cw|Building Unit 107:InteriorEquipment:Electricity,hourly; !- [J]
Output:Meter:Cumulative,res cw|Building Unit 107:InteriorEquipment:Electricity,hourly; !- [J]
Output:Meter,res dw|Building Unit 107:InteriorEquipment:Electricity,hourly; !- [J]
Output:Meter:Cumulative,res dw|Building Unit 107:InteriorEquipment:Electricity,hourly; !- [J]
Output:Meter,res misc plug loads|Building Unit 107:InteriorEquipment:Electricity,hourly; !- [J]
Output:Meter:Cumulative,res misc plug loads|Building Unit 107:InteriorEquipment:Electricity,hourly; !- [J]
Output:Meter,res range electric|Building Unit 107:InteriorEquipment:Electricity,hourly; !- [J]
Output:Meter:Cumulative,res range electric|Building Unit 107:InteriorEquipment:Electricity,hourly; !- [J]
Output:Meter,res refrig|Building Unit 107:InteriorEquipment:Electricity,hourly; !- [J]
Output:Meter:Cumulative,res refrig|Building Unit 107:InteriorEquipment:Electricity,hourly; !- [J]
Output:Meter,InteriorEquipment:Electricity:Zone:1_BDRM_7_3,hourly; !- [J]
Output:Meter:Cumulative,InteriorEquipment:Electricity:Zone:1_BDRM_7_3,hourly; !- [J]
Output:Meter,res cd electric|Building Unit 114:InteriorEquipment:Electricity,hourly; !- [J]
Output:Meter:Cumulative,res cd electric|Building Unit 114:InteriorEquipment:Electricity,hourly; !- [J]
Output:Meter,res cw|Building Unit 114:InteriorEquipment:Electricity,hourly; !- [J]
Output:Meter:Cumulative,res cw|Building Unit 114:InteriorEquipment:Electricity,hourly; !- [J]
Output:Meter,res dw|Building Unit 114:InteriorEquipment:Electricity,hourly; !- [J]
Output:Meter:Cumulative,res dw|Building Unit 114:InteriorEquipment:Electricity,hourly; !- [J]
Output:Meter,res misc plug loads|Building Unit 114:InteriorEquipment:Electricity,hourly; !- [J]
Output:Meter:Cumulative,res misc plug loads|Building Unit 114:InteriorEquipment:Electricity,hourly; !- [J]
Output:Meter,res range electric|Building Unit 114:InteriorEquipment:Electricity,hourly; !- [J]
Output:Meter:Cumulative,res range electric|Building Unit 114:InteriorEquipment:Electricity,hourly; !- [J]
Output:Meter,res refrig|Building Unit 114:InteriorEquipment:Electricity,hourly; !- [J]
Output:Meter:Cumulative,res refrig|Building Unit 114:InteriorEquipment:Electricity,hourly; !- [J]
Output:Meter,InteriorEquipment:Electricity:Zone:1_BDRM_7_4,hourly; !- [J]
Output:Meter:Cumulative,InteriorEquipment:Electricity:Zone:1_BDRM_7_4,hourly; !- [J]
Output:Meter,res cd electric|Building Unit 121:InteriorEquipment:Electricity,hourly; !- [J]
Output:Meter:Cumulative,res cd electric|Building Unit 121:InteriorEquipment:Electricity,hourly; !- [J]
Output:Meter,res cw|Building Unit 121:InteriorEquipment:Electricity,hourly; !- [J]
Output:Meter:Cumulative,res cw|Building Unit 121:InteriorEquipment:Electricity,hourly; !- [J]
Output:Meter,res dw|Building Unit 121:InteriorEquipment:Electricity,hourly; !- [J]
Output:Meter:Cumulative,res dw|Building Unit 121:InteriorEquipment:Electricity,hourly; !- [J]
Output:Meter,res misc plug loads|Building Unit 121:InteriorEquipment:Electricity,hourly; !- [J]
Output:Meter:Cumulative,res misc plug loads|Building Unit 121:InteriorEquipment:Electricity,hourly; !- [J]
Output:Meter,res range electric|Building Unit 121:InteriorEquipment:Electricity,hourly; !- [J]
Output:Meter:Cumulative,res range electric|Building Unit 121:InteriorEquipment:Electricity,hourly; !- [J]
Output:Meter,res refrig|Building Unit 121:InteriorEquipment:Electricity,hourly; !- [J]
Output:Meter:Cumulative,res refrig|Building Unit 121:InteriorEquipment:Electricity,hourly; !- [J]
Output:Meter,InteriorEquipment:Electricity:Zone:2_BDRM_1_2,hourly; !- [J]
Output:Meter:Cumulative,InteriorEquipment:Electricity:Zone:2_BDRM_1_2,hourly; !- [J]
Output:Meter,res cd electric|Building Unit 201:InteriorEquipment:Electricity,hourly; !- [J]
Output:Meter:Cumulative,res cd electric|Building Unit 201:InteriorEquipment:Electricity,hourly; !- [J]
Output:Meter,res cw|Building Unit 201:InteriorEquipment:Electricity,hourly; !- [J]
Output:Meter:Cumulative,res cw|Building Unit 201:InteriorEquipment:Electricity,hourly; !- [J]
Output:Meter,res dw|Building Unit 201:InteriorEquipment:Electricity,hourly; !- [J]
Output:Meter:Cumulative,res dw|Building Unit 201:InteriorEquipment:Electricity,hourly; !- [J]
Output:Meter,res misc plug loads|Building Unit 201:InteriorEquipment:Electricity,hourly; !- [J]
Output:Meter:Cumulative,res misc plug loads|Building Unit 201:InteriorEquipment:Electricity,hourly; !- [J]
Output:Meter,res range electric|Building Unit 201:InteriorEquipment:Electricity,hourly; !- [J]
Output:Meter:Cumulative,res range electric|Building Unit 201:InteriorEquipment:Electricity,hourly; !- [J]
Output:Meter,res refrig|Building Unit 201:InteriorEquipment:Electricity,hourly; !- [J]
Output:Meter:Cumulative,res refrig|Building Unit 201:InteriorEquipment:Electricity,hourly; !- [J]
Output:Meter,InteriorEquipment:Electricity:Zone:2_BDRM_1_3,hourly; !- [J]
Output:Meter:Cumulative,InteriorEquipment:Electricity:Zone:2_BDRM_1_3,hourly; !- [J]
Output:Meter,res cd electric|Building Unit 204:InteriorEquipment:Electricity,hourly; !- [J]
Output:Meter:Cumulative,res cd electric|Building Unit 204:InteriorEquipment:Electricity,hourly; !- [J]
Output:Meter,res cw|Building Unit 204:InteriorEquipment:Electricity,hourly; !- [J]
Output:Meter:Cumulative,res cw|Building Unit 204:InteriorEquipment:Electricity,hourly; !- [J]
Output:Meter,res dw|Building Unit 204:InteriorEquipment:Electricity,hourly; !- [J]
Output:Meter:Cumulative,res dw|Building Unit 204:InteriorEquipment:Electricity,hourly; !- [J]
Output:Meter,res misc plug loads|Building Unit 204:InteriorEquipment:Electricity,hourly; !- [J]
Output:Meter:Cumulative,res misc plug loads|Building Unit 204:InteriorEquipment:Electricity,hourly; !- [J]
Output:Meter,res range electric|Building Unit 204:InteriorEquipment:Electricity,hourly; !- [J]
Output:Meter:Cumulative,res range electric|Building Unit 204:InteriorEquipment:Electricity,hourly; !- [J]
Output:Meter,res refrig|Building Unit 204:InteriorEquipment:Electricity,hourly; !- [J]
Output:Meter:Cumulative,res refrig|Building Unit 204:InteriorEquipment:Electricity,hourly; !- [J]
Output:Meter,InteriorEquipment:Electricity:Zone:2_BDRM_1_4,hourly; !- [J]
Output:Meter:Cumulative,InteriorEquipment:Electricity:Zone:2_BDRM_1_4,hourly; !- [J]
Output:Meter,res cd electric|Building Unit 207:InteriorEquipment:Electricity,hourly; !- [J]
Output:Meter:Cumulative,res cd electric|Building Unit 207:InteriorEquipment:Electricity,hourly; !- [J]
Output:Meter,res cw|Building Unit 207:InteriorEquipment:Electricity,hourly; !- [J]
Output:Meter:Cumulative,res cw|Building Unit 207:InteriorEquipment:Electricity,hourly; !- [J]
Output:Meter,res dw|Building Unit 207:InteriorEquipment:Electricity,hourly; !- [J]
Output:Meter:Cumulative,res dw|Building Unit 207:InteriorEquipment:Electricity,hourly; !- [J]
Output:Meter,res misc plug loads|Building Unit 207:InteriorEquipment:Electricity,hourly; !- [J]
Output:Meter:Cumulative,res misc plug loads|Building Unit 207:InteriorEquipment:Electricity,hourly; !- [J]
Output:Meter,res range electric|Building Unit 207:InteriorEquipment:Electricity,hourly; !- [J]
Output:Meter:Cumulative,res range electric|Building Unit 207:InteriorEquipment:Electricity,hourly; !- [J]
Output:Meter,res refrig|Building Unit 207:InteriorEquipment:Electricity,hourly; !- [J]
Output:Meter:Cumulative,res refrig|Building Unit 207:InteriorEquipment:Electricity,hourly; !- [J]
Output:Meter,InteriorEquipment:Electricity:Zone:2_BDRM_2_2,hourly; !- [J]
Output:Meter:Cumulative,InteriorEquipment:Electricity:Zone:2_BDRM_2_2,hourly; !- [J]
Output:Meter,res cd electric|Building Unit 202:InteriorEquipment:Electricity,hourly; !- [J]
Output:Meter:Cumulative,res cd electric|Building Unit 202:InteriorEquipment:Electricity,hourly; !- [J]
Output:Meter,res cw|Building Unit 202:InteriorEquipment:Electricity,hourly; !- [J]
Output:Meter:Cumulative,res cw|Building Unit 202:InteriorEquipment:Electricity,hourly; !- [J]
Output:Meter,res dw|Building Unit 202:InteriorEquipment:Electricity,hourly; !- [J]
Output:Meter:Cumulative,res dw|Building Unit 202:InteriorEquipment:Electricity,hourly; !- [J]
Output:Meter,res misc plug loads|Building Unit 202:InteriorEquipment:Electricity,hourly; !- [J]
Output:Meter:Cumulative,res misc plug loads|Building Unit 202:InteriorEquipment:Electricity,hourly; !- [J]
Output:Meter,res range electric|Building Unit 202:InteriorEquipment:Electricity,hourly; !- [J]
Output:Meter:Cumulative,res range electric|Building Unit 202:InteriorEquipment:Electricity,hourly; !- [J]
Output:Meter,res refrig|Building Unit 202:InteriorEquipment:Electricity,hourly; !- [J]
Output:Meter:Cumulative,res refrig|Building Unit 202:InteriorEquipment:Electricity,hourly; !- [J]
Output:Meter,InteriorEquipment:Electricity:Zone:2_BDRM_2_3,hourly; !- [J]
Output:Meter:Cumulative,InteriorEquipment:Electricity:Zone:2_BDRM_2_3,hourly; !- [J]
Output:Meter,res cd electric|Building Unit 205:InteriorEquipment:Electricity,hourly; !- [J]
Output:Meter:Cumulative,res cd electric|Building Unit 205:InteriorEquipment:Electricity,hourly; !- [J]
Output:Meter,res cw|Building Unit 205:InteriorEquipment:Electricity,hourly; !- [J]
Output:Meter:Cumulative,res cw|Building Unit 205:InteriorEquipment:Electricity,hourly; !- [J]
Output:Meter,res dw|Building Unit 205:InteriorEquipment:Electricity,hourly; !- [J]
Output:Meter:Cumulative,res dw|Building Unit 205:InteriorEquipment:Electricity,hourly; !- [J]
Output:Meter,res misc plug loads|Building Unit 205:InteriorEquipment:Electricity,hourly; !- [J]
Output:Meter:Cumulative,res misc plug loads|Building Unit 205:InteriorEquipment:Electricity,hourly; !- [J]
Output:Meter,res range electric|Building Unit 205:InteriorEquipment:Electricity,hourly; !- [J]
Output:Meter:Cumulative,res range electric|Building Unit 205:InteriorEquipment:Electricity,hourly; !- [J]
Output:Meter,res refrig|Building Unit 205:InteriorEquipment:Electricity,hourly; !- [J]
Output:Meter:Cumulative,res refrig|Building Unit 205:InteriorEquipment:Electricity,hourly; !- [J]
Output:Meter,InteriorEquipment:Electricity:Zone:2_BDRM_2_4,hourly; !- [J]
Output:Meter:Cumulative,InteriorEquipment:Electricity:Zone:2_BDRM_2_4,hourly; !- [J]
Output:Meter,res cd electric|Building Unit 208:InteriorEquipment:Electricity,hourly; !- [J]
Output:Meter:Cumulative,res cd electric|Building Unit 208:InteriorEquipment:Electricity,hourly; !- [J]
Output:Meter,res cw|Building Unit 208:InteriorEquipment:Electricity,hourly; !- [J]
Output:Meter:Cumulative,res cw|Building Unit 208:InteriorEquipment:Electricity,hourly; !- [J]
[...]
Output:Meter:Cumulative,res wh|Building Unit 110:WaterSystems:Gas,hourly; !- [J]
Output:Meter,res wh|Building Unit 110:WaterSystems:Electricity,hourly; !- [J]
Output:Meter:Cumulative,res wh|Building Unit 110:WaterSystems:Electricity,hourly; !- [J]
Output:Meter,res wh|Building Unit 110:WaterSystems:Water,hourly; !- [m3]
Output:Meter:Cumulative,res wh|Building Unit 110:WaterSystems:Water,hourly; !- [m3]
Output:Meter,res wh|Building Unit 110:WaterSystems:MainsWater,hourly; !- [m3]
Output:Meter:Cumulative,res wh|Building Unit 110:WaterSystems:MainsWater,hourly; !- [m3]
Output:Meter,res wh|Building Unit 111:WaterSystems:PlantLoopHeatingDemand,hourly; !- [J]
Output:Meter:Cumulative,res wh|Building Unit 111:WaterSystems:PlantLoopHeatingDemand,hourly; !- [J]
Output:Meter,res wh|Building Unit 111:WaterSystems:Gas,hourly; !- [J]
Output:Meter:Cumulative,res wh|Building Unit 111:WaterSystems:Gas,hourly; !- [J]
Output:Meter,res wh|Building Unit 111:WaterSystems:Electricity,hourly; !- [J]
Output:Meter:Cumulative,res wh|Building Unit 111:WaterSystems:Electricity,hourly; !- [J]
Output:Meter,res wh|Building Unit 111:WaterSystems:Water,hourly; !- [m3]
Output:Meter:Cumulative,res wh|Building Unit 111:WaterSystems:Water,hourly; !- [m3]
Output:Meter,res wh|Building Unit 111:WaterSystems:MainsWater,hourly; !- [m3]
Output:Meter:Cumulative,res wh|Building Unit 111:WaterSystems:MainsWater,hourly; !- [m3]
Output:Meter,res wh|Building Unit 112:WaterSystems:PlantLoopHeatingDemand,hourly; !- [J]
Output:Meter:Cumulative,res wh|Building Unit 112:WaterSystems:PlantLoopHeatingDemand,hourly; !- [J]
Output:Meter,res wh|Building Unit 112:WaterSystems:Gas,hourly; !- [J]
Output:Meter:Cumulative,res wh|Building Unit 112:WaterSystems:Gas,hourly; !- [J]
Output:Meter,res wh|Building Unit 112:WaterSystems:Electricity,hourly; !- [J]
Output:Meter:Cumulative,res wh|Building Unit 112:WaterSystems:Electricity,hourly; !- [J]
Output:Meter,res wh|Building Unit 112:WaterSystems:Water,hourly; !- [m3]
Output:Meter:Cumulative,res wh|Building Unit 112:WaterSystems:Water,hourly; !- [m3]
Output:Meter,res wh|Building Unit 112:WaterSystems:MainsWater,hourly; !- [m3]
Output:Meter:Cumulative,res wh|Building Unit 112:WaterSystems:MainsWater,hourly; !- [m3]
Output:Meter,res wh|Building Unit 113:WaterSystems:PlantLoopHeatingDemand,hourly; !- [J]
Output:Meter:Cumulative,res wh|Building Unit 113:WaterSystems:PlantLoopHeatingDemand,hourly; !- [J]
Output:Meter,res wh|Building Unit 113:WaterSystems:Gas,hourly; !- [J]
Output:Meter:Cumulative,res wh|Building Unit 113:WaterSystems:Gas,hourly; !- [J]
Output:Meter,res wh|Building Unit 113:WaterSystems:Electricity,hourly; !- [J]
Output:Meter:Cumulative,res wh|Building Unit 113:WaterSystems:Electricity,hourly; !- [J]
Output:Meter,res wh|Building Unit 113:WaterSystems:Water,hourly; !- [m3]
Output:Meter:Cumulative,res wh|Building Unit 113:WaterSystems:Water,hourly; !- [m3]
Output:Meter,res wh|Building Unit 113:WaterSystems:MainsWater,hourly; !- [m3]
Output:Meter:Cumulative,res wh|Building Unit 113:WaterSystems:MainsWater,hourly; !- [m3]
Output:Meter,res wh|Building Unit 114:WaterSystems:PlantLoopHeatingDemand,hourly; !- [J]
Output:Meter:Cumulative,res wh|Building Unit 114:WaterSystems:PlantLoopHeatingDemand,hourly; !- [J]
Output:Meter,res wh|Building Unit 114:WaterSystems:Gas,hourly; !- [J]
Output:Meter:Cumulative,res wh|Building Unit 114:WaterSystems:Gas,hourly; !- [J]
Output:Meter,res wh|Building Unit 114:WaterSystems:Electricity,hourly; !- [J]
Output:Meter:Cumulative,res wh|Building Unit 114:WaterSystems:Electricity,hourly; !- [J]
Output:Meter,res wh|Building Unit 114:WaterSystems:Water,hourly; !- [m3]
Output:Meter:Cumulative,res wh|Building Unit 114:WaterSystems:Water,hourly; !- [m3]
Output:Meter,res wh|Building Unit 114:WaterSystems:MainsWater,hourly; !- [m3]
Output:Meter:Cumulative,res wh|Building Unit 114:WaterSystems:MainsWater,hourly; !- [m3]
Output:Meter,res wh|Building Unit 115:WaterSystems:PlantLoopHeatingDemand,hourly; !- [J]
Output:Meter:Cumulative,res wh|Building Unit 115:WaterSystems:PlantLoopHeatingDemand,hourly; !- [J]
Output:Meter,res wh|Building Unit 115:WaterSystems:Gas,hourly; !- [J]
Output:Meter:Cumulative,res wh|Building Unit 115:WaterSystems:Gas,hourly; !- [J]
Output:Meter,res wh|Building Unit 115:WaterSystems:Electricity,hourly; !- [J]
Output:Meter:Cumulative,res wh|Building Unit 115:WaterSystems:Electricity,hourly; !- [J]
Output:Meter,res wh|Building Unit 115:WaterSystems:Water,hourly; !- [m3]
Output:Meter:Cumulative,res wh|Building Unit 115:WaterSystems:Water,hourly; !- [m3]
Output:Meter,res wh|Building Unit 115:WaterSystems:MainsWater,hourly; !- [m3]
Output:Meter:Cumulative,res wh|Building Unit 115:WaterSystems:MainsWater,hourly; !- [m3]
Output:Meter,res wh|Building Unit 116:WaterSystems:PlantLoopHeatingDemand,hourly; !- [J]
Output:Meter:Cumulative,res wh|Building Unit 116:WaterSystems:PlantLoopHeatingDemand,hourly; !- [J]
Output:Meter,res wh|Building Unit 116:WaterSystems:Gas,hourly; !- [J]
Output:Meter:Cumulative,res wh|Building Unit 116:WaterSystems:Gas,hourly; !- [J]
Output:Meter,res wh|Building Unit 116:WaterSystems:Electricity,hourly; !- [J]
Output:Meter:Cumulative,res wh|Building Unit 116:WaterSystems:Electricity,hourly; !- [J]
Output:Meter,res wh|Building Unit 116:WaterSystems:Water,hourly; !- [m3]
Output:Meter:Cumulative,res wh|Building Unit 116:WaterSystems:Water,hourly; !- [m3]
Output:Meter,res wh|Building Unit 116:WaterSystems:MainsWater,hourly; !- [m3]
Output:Meter:Cumulative,res wh|Building Unit 116:WaterSystems:MainsWater,hourly; !- [m3]
Output:Meter,res wh|Building Unit 117:WaterSystems:PlantLoopHeatingDemand,hourly; !- [J]
Output:Meter:Cumulative,res wh|Building Unit 117:WaterSystems:PlantLoopHeatingDemand,hourly; !- [J]
Output:Meter,res wh|Building Unit 117:WaterSystems:Gas,hourly; !- [J]
Output:Meter:Cumulative,res wh|Building Unit 117:WaterSystems:Gas,hourly; !- [J]
Output:Meter,res wh|Building Unit 117:WaterSystems:Electricity,hourly; !- [J]
Output:Meter:Cumulative,res wh|Building Unit 117:WaterSystems:Electricity,hourly; !- [J]
Output:Meter,res wh|Building Unit 117:WaterSystems:Water,hourly; !- [m3]
Output:Meter:Cumulative,res wh|Building Unit 117:WaterSystems:Water,hourly; !- [m3]
Output:Meter,res wh|Building Unit 117:WaterSystems:MainsWater,hourly; !- [m3]
Output:Meter:Cumulative,res wh|Building Unit 117:WaterSystems:MainsWater,hourly; !- [m3]
Output:Meter,res wh|Building Unit 118:WaterSystems:PlantLoopHeatingDemand,hourly; !- [J]
Output:Meter:Cumulative,res wh|Building Unit 118:WaterSystems:PlantLoopHeatingDemand,hourly; !- [J]
Output:Meter,res wh|Building Unit 118:WaterSystems:Gas,hourly; !- [J]
Output:Meter:Cumulative,res wh|Building Unit 118:WaterSystems:Gas,hourly; !- [J]
Output:Meter,res wh|Building Unit 118:WaterSystems:Electricity,hourly; !- [J]
Output:Meter:Cumulative,res wh|Building Unit 118:WaterSystems:Electricity,hourly; !- [J]
Output:Meter,res wh|Building Unit 118:WaterSystems:Water,hourly; !- [m3]
Output:Meter:Cumulative,res wh|Building Unit 118:WaterSystems:Water,hourly; !- [m3]
Output:Meter,res wh|Building Unit 118:WaterSystems:MainsWater,hourly; !- [m3]
Output:Meter:Cumulative,res wh|Building Unit 118:WaterSystems:MainsWater,hourly; !- [m3]
Output:Meter,res wh|Building Unit 119:WaterSystems:PlantLoopHeatingDemand,hourly; !- [J]
Output:Meter:Cumulative,res wh|Building Unit 119:WaterSystems:PlantLoopHeatingDemand,hourly; !- [J]
Output:Meter,res wh|Building Unit 119:WaterSystems:Gas,hourly; !- [J]
Output:Meter:Cumulative,res wh|Building Unit 119:WaterSystems:Gas,hourly; !- [J]
Output:Meter,res wh|Building Unit 119:WaterSystems:Electricity,hourly; !- [J]
Output:Meter:Cumulative,res wh|Building Unit 119:WaterSystems:Electricity,hourly; !- [J]
Output:Meter,res wh|Building Unit 119:WaterSystems:Water,hourly; !- [m3]
Output:Meter:Cumulative,res wh|Building Unit 119:WaterSystems:Water,hourly; !- [m3]
Output:Meter,res wh|Building Unit 119:WaterSystems:MainsWater,hourly; !- [m3]
Output:Meter:Cumulative,res wh|Building Unit 119:WaterSystems:MainsWater,hourly; !- [m3]
Output:Meter,res wh|Building Unit 120:WaterSystems:PlantLoopHeatingDemand,hourly; !- [J]
Output:Meter:Cumulative,res wh|Building Unit 120:WaterSystems:PlantLoopHeatingDemand,hourly; !- [J]
Output:Meter,res wh|Building Unit 120:WaterSystems:Gas,hourly; !- [J]
Output:Meter:Cumulative,res wh|Building Unit 120:WaterSystems:Gas,hourly; !- [J]
Output:Meter,res wh|Building Unit 120:WaterSystems:Electricity,hourly; !- [J]
Output:Meter:Cumulative,res wh|Building Unit 120:WaterSystems:Electricity,hourly; !- [J]
Output:Meter,res wh|Building Unit 120:WaterSystems:Water,hourly; !- [m3]
Output:Meter:Cumulative,res wh|Building Unit 120:WaterSystems:Water,hourly; !- [m3]
Output:Meter,res wh|Building Unit 120:WaterSystems:MainsWater,hourly; !- [m3]
Output:Meter:Cumulative,res wh|Building Unit 120:WaterSystems:MainsWater,hourly; !- [m3]
Output:Meter,res wh|Building Unit 121:WaterSystems:PlantLoopHeatingDemand,hourly; !- [J]
Output:Meter:Cumulative,res wh|Building Unit 121:WaterSystems:PlantLoopHeatingDemand,hourly; !- [J]
Output:Meter,res wh|Building Unit 121:WaterSystems:Gas,hourly; !- [J]
Output:Meter:Cumulative,res wh|Building Unit 121:WaterSystems:Gas,hourly; !- [J]
Output:Meter,res wh|Building Unit 121:WaterSystems:Electricity,hourly; !- [J]
Output:Meter:Cumulative,res wh|Building Unit 121:WaterSystems:Electricity,hourly; !- [J]
Output:Meter,res wh|Building Unit 121:WaterSystems:Water,hourly; !- [m3]
Output:Meter:Cumulative,res wh|Building Unit 121:WaterSystems:Water,hourly; !- [m3]
Output:Meter,res wh|Building Unit 121:WaterSystems:MainsWater,hourly; !- [m3]
Output:Meter:Cumulative,res wh|Building Unit 121:WaterSystems:MainsWater,hourly; !- [m3]
Output:Meter,res wh|Building Unit 201:WaterSystems:PlantLoopHeatingDemand,hourly; !- [J]
Output:Meter:Cumulative,res wh|Building Unit 201:WaterSystems:PlantLoopHeatingDemand,hourly; !- [J]
Output:Meter,res wh|Building Unit 201:WaterSystems:Gas,hourly; !- [J]
Output:Meter:Cumulative,res wh|Building Unit 201:WaterSystems:Gas,hourly; !- [J]
Output:Meter,res wh|Building Unit 201:WaterSystems:Electricity,hourly; !- [J]
Output:Meter:Cumulative,res wh|Building Unit 201:WaterSystems:Electricity,hourly; !- [J]
Output:Meter,res wh|Building Unit 201:WaterSystems:Water,hourly; !- [m3]
Output:Meter:Cumulative,res wh|Building Unit 201:WaterSystems:Water,hourly; !- [m3]
Output:Meter,res wh|Building Unit 201:WaterSystems:MainsWater,hourly; !- [m3]
Output:Meter:Cumulative,res wh|Building Unit 201:WaterSystems:MainsWater,hourly; !- [m3]
Output:Meter,res wh|Building Unit 202:WaterSystems:PlantLoopHeatingDemand,hourly; !- [J]
Output:Meter:Cumulative,res wh|Building Unit 202:WaterSystems:PlantLoopHeatingDemand,hourly; !- [J]
Output:Meter,res wh|Building Unit 202:WaterSystems:Gas,hourly; !- [J]
Output:Meter:Cumulative,res wh|Building Unit 202:WaterSystems:Gas,hourly; !- [J]
Output:Meter,res wh|Building Unit 202:WaterSystems:Electricity,hourly; !- [J]
Output:Meter:Cumulative,res wh|Building Unit 202:WaterSystems:Electricity,hourly; !- [J]
Output:Meter,res wh|Building Unit 202:WaterSystems:Water,hourly; !- [m3]
Output:Meter:Cumulative,res wh|Building Unit 202:WaterSystems:Water,hourly; !- [m3]
Output:Meter,res wh|Building Unit 202:WaterSystems:MainsWater,hourly; !- [m3]
Output:Meter:Cumulative,res wh|Building Unit 202:WaterSystems:MainsWater,hourly; !- [m3]
Output:Meter,res wh|Building Unit 203:WaterSystems:PlantLoopHeatingDemand,hourly; !- [J]
Output:Meter:Cumulative,res wh|Building Unit 203:WaterSystems:PlantLoopHeatingDemand,hourly; !- [J]
Output:Meter,res wh|Building Unit 203:WaterSystems:Gas,hourly; !- [J]
Output:Meter:Cumulative,res wh|Building Unit 203:WaterSystems:Gas,hourly; !- [J]
Output:Meter,res wh|Building Unit 203:WaterSystems:Electricity,hourly; !- [J]
Output:Meter:Cumulative,res wh|Building Unit 203:WaterSystems:Electricity,hourly; !- [J]
Output:Meter,res wh|Building Unit 203:WaterSystems:Water,hourly; !- [m3]
Output:Meter:Cumulative,res wh|Building Unit 203:WaterSystems:Water,hourly; !- [m3]
Output:Meter,res wh|Building Unit 203:WaterSystems:MainsWater,hourly; !- [m3]
Output:Meter:Cumulative,res wh|Building Unit 203:WaterSystems:MainsWater,hourly; !- [m3]
Output:Meter,res wh|Building Unit 204:WaterSystems:PlantLoopHeatingDemand,hourly; !- [J]
Output:Meter:Cumulative,res wh|Building Unit 204:WaterSystems:PlantLoopHeatingDemand,hourly; !- [J]
Output:Meter,res wh|Building Unit 204:WaterSystems:Gas,hourly; !- [J]
Output:Meter:Cumulative,res wh|Building Unit 204:WaterSystems:Gas,hourly; !- [J]
Output:Meter,res wh|Building Unit 204:WaterSystems:Electricity,hourly; !- [J]
Output:Meter:Cumulative,res wh|Building Unit 204:WaterSystems:Electricity,hourly; !- [J]
Output:Meter,res wh|Building Unit 204:WaterSystems:Water,hourly; !- [m3]
Output:Meter:Cumulative,res wh|Building Unit 204:WaterSystems:Water,hourly; !- [m3]
Output:Meter,res wh|Building Unit 204:WaterSystems:MainsWater,hourly; !- [m3]
Output:Meter:Cumulative,res wh|Building Unit 204:WaterSystems:MainsWater,hourly; !- [m3]
Output:Meter,res wh|Building Unit 205:WaterSystems:PlantLoopHeatingDemand,hourly; !- [J]
Output:Meter:Cumulative,res wh|Building Unit 205:WaterSystems:PlantLoopHeatingDemand,hourly; !- [J]
Output:Meter,res wh|Building Unit 205:WaterSystems:Gas,hourly; !- [J]
Output:Meter:Cumulative,res wh|Building Unit 205:WaterSystems:Gas,hourly; !- [J]
Output:Meter,res wh|Building Unit 205:WaterSystems:Electricity,hourly; !- [J]
Output:Meter:Cumulative,res wh|Building Unit 205:WaterSystems:Electricity,hourly; !- [J]
Output:Meter,res wh|Building Unit 205:WaterSystems:Water,hourly; !- [m3]
Output:Meter:Cumulative,res wh|Building Unit 205:WaterSystems:Water,hourly; !- [m3]
Output:Meter,res wh|Building Unit 205:WaterSystems:MainsWater,hourly; !- [m3]
Output:Meter:Cumulative,res wh|Building Unit 205:WaterSystems:MainsWater,hourly; !- [m3]
Output:Meter,res wh|Building Unit 206:WaterSystems:PlantLoopHeatingDemand,hourly; !- [J]
Output:Meter:Cumulative,res wh|Building Unit 206:WaterSystems:PlantLoopHeatingDemand,hourly; !- [J]
Output:Meter,res wh|Building Unit 206:WaterSystems:Gas,hourly; !- [J]
Output:Meter:Cumulative,res wh|Building Unit 206:WaterSystems:Gas,hourly; !- [J]
Output:Meter,res wh|Building Unit 206:WaterSystems:Electricity,hourly; !- [J]
Output:Meter:Cumulative,res wh|Building Unit 206:WaterSystems:Electricity,hourly; !- [J]
Output:Meter,res wh|Building Unit 206:WaterSystems:Water,hourly; !- [m3]
Output:Meter:Cumulative,res wh|Building Unit 206:WaterSystems:Water,hourly; !- [m3]
Output:Meter,res wh|Building Unit 206:WaterSystems:MainsWater,hourly; !- [m3]
Output:Meter:Cumulative,res wh|Building Unit 206:WaterSystems:MainsWater,hourly; !- [m3]
Output:Meter,res wh|Building Unit 207:WaterSystems:PlantLoopHeatingDemand,hourly; !- [J]
Output:Meter:Cumulative,res wh|Building Unit 207:WaterSystems:PlantLoopHeatingDemand,hourly; !- [J]
Output:Meter,res wh|Building Unit 207:WaterSystems:Gas,hourly; !- [J]
Output:Meter:Cumulative,res wh|Building Unit 207:WaterSystems:Gas,hourly; !- [J]
Output:Meter,res wh|Building Unit 207:WaterSystems:Electricity,hourly; !- [J]
Output:Meter:Cumulative,res wh|Building Unit 207:WaterSystems:Electricity,hourly; !- [J]
Output:Meter,res wh|Building Unit 207:WaterSystems:Water,hourly; !- [m3]
Output:Meter:Cumulative,res wh|Building Unit 207:WaterSystems:Water,hourly; !- [m3]
Output:Meter,res wh|Building Unit 207:WaterSystems:MainsWater,hourly; !- [m3]
Output:Meter:Cumulative,res wh|Building Unit 207:WaterSystems:MainsWater,hourly; !- [m3]
Output:Meter,res wh|Building Unit 208:WaterSystems:PlantLoopHeatingDemand,hourly; !- [J]
Output:Meter:Cumulative,res wh|Building Unit 208:WaterSystems:PlantLoopHeatingDemand,hourly; !- [J]
Output:Meter,res wh|Building Unit 208:WaterSystems:Gas,hourly; !- [J]
Output:Meter:Cumulative,res wh|Building Unit 208:WaterSystems:Gas,hourly; !- [J]
Output:Meter,res wh|Building Unit 208:WaterSystems:Electricity,hourly; !- [J]
Output:Meter:Cumulative,res wh|Building Unit 208:WaterSystems:Electricity,hourly; !- [J]
Output:Meter,res wh|Building Unit 208:WaterSystems:Water,hourly; !- [m3]
Output:Meter:Cumulative,res wh|Building Unit 208:WaterSystems:Water,hourly; !- [m3]
Output:Meter,res wh|Building Unit 208:WaterSystems:MainsWater,hourly; !- [m3]
Output:Meter:Cumulative,res wh|Building Unit 208:WaterSystems:MainsWater,hourly; !- [m3]
Output:Meter,res wh|Building Unit 209:WaterSystems:PlantLoopHeatingDemand,hourly; !- [J]
Output:Meter:Cumulative,res wh|Building Unit 209:WaterSystems:PlantLoopHeatingDemand,hourly; !- [J]
Output:Meter,res wh|Building Unit 209:WaterSystems:Gas,hourly; !- [J]
Output:Meter:Cumulative,res wh|Building Unit 209:WaterSystems:Gas,hourly; !- [J]
Output:Meter,res wh|Building Unit 209:WaterSystems:Electricity,hourly; !- [J]
Output:Meter:Cumulative,res wh|Building Unit 209:WaterSystems:Electricity,hourly; !- [J]
Output:Meter,res wh|Building Unit 209:WaterSystems:Water,hourly; !- [m3]
Output:Meter:Cumulative,res wh|Building Unit 209:WaterSystems:Water,hourly; !- [m3]
Output:Meter,res wh|Building Unit 209:WaterSystems:MainsWater,hourly; !- [m3]
Output:Meter:Cumulative,res wh|Building Unit 209:WaterSystems:MainsWater,hourly; !- [m3]
Output:Meter,res wh|Building Unit 301:WaterSystems:PlantLoopHeatingDemand,hourly; !- [J]
Output:Meter:Cumulative,res wh|Building Unit 301:WaterSystems:PlantLoopHeatingDemand,hourly; !- [J]
Output:Meter,res wh|Building Unit 301:WaterSystems:Gas,hourly; !- [J]
Output:Meter:Cumulative,res wh|Building Unit 301:WaterSystems:Gas,hourly; !- [J]
Output:Meter,res wh|Building Unit 301:WaterSystems:Electricity,hourly; !- [J]
Output:Meter:Cumulative,res wh|Building Unit 301:WaterSystems:Electricity,hourly; !- [J]
Output:Meter,res wh|Building Unit 301:WaterSystems:Water,hourly; !- [m3]
Output:Meter:Cumulative,res wh|Building Unit 301:WaterSystems:Water,hourly; !- [m3]
Output:Meter,res wh|Building Unit 301:WaterSystems:MainsWater,hourly; !- [m3]
Output:Meter:Cumulative,res wh|Building Unit 301:WaterSystems:MainsWater,hourly; !- [m3]
Output:Meter,res wh|Building Unit 302:WaterSystems:PlantLoopHeatingDemand,hourly; !- [J]
Output:Meter:Cumulative,res wh|Building Unit 302:WaterSystems:PlantLoopHeatingDemand,hourly; !- [J]
Output:Meter,res wh|Building Unit 302:WaterSystems:Gas,hourly; !- [J]
Output:Meter:Cumulative,res wh|Building Unit 302:WaterSystems:Gas,hourly; !- [J]
Output:Meter,res wh|Building Unit 302:WaterSystems:Electricity,hourly; !- [J]
Output:Meter:Cumulative,res wh|Building Unit 302:WaterSystems:Electricity,hourly; !- [J]
Output:Meter,res wh|Building Unit 302:WaterSystems:Water,hourly; !- [m3]
Output:Meter:Cumulative,res wh|Building Unit 302:WaterSystems:Water,hourly; !- [m3]
Output:Meter,res wh|Building Unit 302:WaterSystems:MainsWater,hourly; !- [m3]
Output:Meter:Cumulative,res wh|Building Unit 302:WaterSystems:MainsWater,hourly; !- [m3]
Output:Meter,res wh|Building Unit 303:WaterSystems:PlantLoopHeatingDemand,hourly; !- [J]
Output:Meter:Cumulative,res wh|Building Unit 303:WaterSystems:PlantLoopHeatingDemand,hourly; !- [J]
Output:Meter,res wh|Building Unit 303:WaterSystems:Gas,hourly; !- [J]
Output:Meter:Cumulative,res wh|Building Unit 303:WaterSystems:Gas,hourly; !- [J]
Output:Meter,res wh|Building Unit 303:WaterSystems:Electricity,hourly; !- [J]
Output:Meter:Cumulative,res wh|Building Unit 303:WaterSystems:Electricity,hourly; !- [J]
Output:Meter,res wh|Building Unit 303:WaterSystems:Water,hourly; !- [m3]
Output:Meter:Cumulative,res wh|Building Unit 303:WaterSystems:Water,hourly; !- [m3]
Output:Meter,res wh|Building Unit 303:WaterSystems:MainsWater,hourly; !- [m3]
Output:Meter:Cumulative,res wh|Building Unit 303:WaterSystems:MainsWater,hourly; !- [m3]
Output:Meter,Carbon Equivalent:Facility,hourly; !- [kg]
Output:Meter:Cumulative,Carbon Equivalent:Facility,hourly; !- [kg]
Output:Meter,CarbonEquivalentEmissions:Carbon Equivalent,hourly; !- [kg]
Output:Meter:Cumulative,CarbonEquivalentEmissions:Carbon Equivalent,hourly; !- [kg]
