Program Version,EnergyPlus, Version 9.3.0-baff08990c, YMD=2021.05.19 07:51
! <Version>, Version ID
 Version, 9.3
! <Timesteps per Hour>, #TimeSteps, Minutes per TimeStep {minutes}
 Timesteps per Hour,  1, 60
! <System Convergence Limits>, Minimum System TimeStep {minutes}, Max HVAC Iterations, Minimum Plant Iterations, Maximum Plant Iterations
 System Convergence Limits, 1, 20, 2, 8
! <Simulation Control>, Do Zone Sizing, Do System Sizing, Do Plant Sizing, Do Design Days, Do Weather Simulation, Do HVAC Sizing Simulation
 Simulation Control, Yes, Yes, Yes, Yes, No, No
! <Performance Precision Tradeoffs>, Use Coil Direct Simulation, Zone Radiant Exchange Algorithm, Override Mode, Number of Timestep In Hour, Force Euler Method, Minimum Number of Warmup Days, Force Suppress All Begin Environment Resets, MaxZoneTempDiff
 Performance Precision Tradeoffs, No, ScriptF, Normal, 1, No, 1, No, 0.300
! <Output Reporting Tolerances>, Tolerance for Time Heating Setpoint Not Met, Tolerance for Zone Cooling Setpoint Not Met Time
 Output Reporting Tolerances, 0.556, 0.556, 
! <Site:GroundTemperature:BuildingSurface>,Jan{C},Feb{C},Mar{C},Apr{C},May{C},Jun{C},Jul{C},Aug{C},Sep{C},Oct{C},Nov{C},Dec{C}
 Site:GroundTemperature:BuildingSurface,  20.67,  20.66,  20.63,  20.67,  20.70,  22.85,  23.24,  23.33,  23.34,  21.19,  20.85,  20.74
! <Site:GroundTemperature:FCfactorMethod>,Jan{C},Feb{C},Mar{C},Apr{C},May{C},Jun{C},Jul{C},Aug{C},Sep{C},Oct{C},Nov{C},Dec{C}
 Site:GroundTemperature:FCfactorMethod,  11.74,   9.25,   8.57,   9.16,  12.52,  16.29,  19.83,  22.39,  23.14,  21.94,  19.04,  15.38
! <Site:GroundTemperature:Shallow>,Jan{C},Feb{C},Mar{C},Apr{C},May{C},Jun{C},Jul{C},Aug{C},Sep{C},Oct{C},Nov{C},Dec{C}
 Site:GroundTemperature:Shallow,  13.00,  13.00,  13.00,  13.00,  13.00,  13.00,  13.00,  13.00,  13.00,  13.00,  13.00,  13.00
! <Site:GroundTemperature:Deep>,Jan{C},Feb{C},Mar{C},Apr{C},May{C},Jun{C},Jul{C},Aug{C},Sep{C},Oct{C},Nov{C},Dec{C}
 Site:GroundTemperature:Deep,  16.00,  16.00,  16.00,  16.00,  16.00,  16.00,  16.00,  16.00,  16.00,  16.00,  16.00,  16.00
! <Site:GroundReflectance>,Jan{dimensionless},Feb{dimensionless},Mar{dimensionless},Apr{dimensionless},May{dimensionless},Jun{dimensionless},Jul{dimensionless},Aug{dimensionless},Sep{dimensionless},Oct{dimensionless},Nov{dimensionless},Dec{dimensionless}
 Site:GroundReflectance,  0.20,  0.20,  0.20,  0.20,  0.20,  0.20,  0.20,  0.20,  0.20,  0.20,  0.20,  0.20
! <Site:GroundReflectance:SnowModifier>, Normal, Daylighting {dimensionless}
 Site:GroundReflectance:SnowModifier,   1.000,   1.000
! <Site:GroundReflectance:Snow>,Jan{dimensionless},Feb{dimensionless},Mar{dimensionless},Apr{dimensionless},May{dimensionless},Jun{dimensionless},Jul{dimensionless},Aug{dimensionless},Sep{dimensionless},Oct{dimensionless},Nov{dimensionless},Dec{dimensionless}
 Site:GroundReflectance:Snow,  0.20,  0.20,  0.20,  0.20,  0.20,  0.20,  0.20,  0.20,  0.20,  0.20,  0.20,  0.20
! <Site:GroundReflectance:Snow:Daylighting>,Jan{dimensionless},Feb{dimensionless},Mar{dimensionless},Apr{dimensionless},May{dimensionless},Jun{dimensionless},Jul{dimensionless},Aug{dimensionless},Sep{dimensionless},Oct{dimensionless},Nov{dimensionless},Dec{dimensionless}
 Site:GroundReflectance:Snow:Daylighting,  0.20,  0.20,  0.20,  0.20,  0.20,  0.20,  0.20,  0.20,  0.20,  0.20,  0.20,  0.20
! <Environment:Weather Station>,Wind Sensor Height Above Ground {m},Wind Speed Profile Exponent {},Wind Speed Profile Boundary Layer Thickness {m},Air Temperature Sensor Height Above Ground {m},Wind Speed Modifier Coefficient-Internal,Temperature Modifier Coefficient-Internal
Environment:Weather Station,10.000,0.140,270.000,1.500,1.586,9.750E-003
! <Site:Location>, Location Name, Latitude {N+/S- Deg}, Longitude {E+/W- Deg},  Time Zone Number {GMT+/-}, Elevation {m},  Standard Pressure at Elevation {Pa}, Standard RhoAir at Elevation
Site:Location,Sacramento Metropolitan Ap CA USA TMY3 WMO#=724839,38.70,-121.58,-8.00,7.00,101241,1.2033
! <Site Water Mains Temperature Information>,Calculation Method{},Water Mains Temperature Schedule Name{},Annual Average Outdoor Air Temperature{C},Maximum Difference In Monthly Average Outdoor Air Temperatures{deltaC},Fixed Default Water Mains Temperature{C}
Site Water Mains Temperature Information,Correlation,NA,15.87,16.10,NA
! <Building Information>, Building Name,North Axis {deg},Terrain,  Loads Convergence Tolerance Value,Temperature Convergence Tolerance Value,  Solar Distribution,Maximum Number of Warmup Days,Minimum Number of Warmup Days
 Building Information,Building 1,0.000,City,4.00000E-002,0.40000,FullExterior,25,1
! <Inside Convection Algorithm>, Algorithm {Simple | TARP | CeilingDiffuser | AdaptiveConvectionAlgorithm}
Inside Convection Algorithm,TARP
! <Outside Convection Algorithm>, Algorithm {SimpleCombined | TARP | MoWitt | DOE-2 | AdaptiveConvectionAlgorithm}
Outside Convection Algorithm,DOE-2
! <Sky Radiance Distribution>, Value {Anisotropic}
Sky Radiance Distribution,Anisotropic
! <Zone Air Solution Algorithm>, Value {ThirdOrderBackwardDifference | AnalyticalSolution | EulerMethod}
 Zone Air Solution Algorithm, ThirdOrderBackwardDifference
! <Zone Air Carbon Dioxide Balance Simulation>, Simulation {Yes/No}, Carbon Dioxide Concentration
 Zone Air Carbon Dioxide Balance Simulation, No,N/A
! <Zone Air Generic Contaminant Balance Simulation>, Simulation {Yes/No}, Generic Contaminant Concentration
 Zone Air Generic Contaminant Balance Simulation, No,N/A
! <Zone Air Mass Flow Balance Simulation>, Enforce Mass Balance, Adjust Zone Mixing, Adjust Zone Infiltration {AddInfiltration | AdjustInfiltration | None}, Infiltration Zones {MixingSourceZonesOnly | AllZones}
 Zone Air Mass Flow Balance Simulation, No,N/A,N/A,N/A
! <HVACSystemRootFindingAlgorithm>, Value {RegulaFalsi | Bisection | BisectionThenRegulaFalsi | RegulaFalsiThenBisection}
 HVACSystemRootFindingAlgorithm, RegulaFalsi
! <Environment:Site Atmospheric Variation>,Wind Speed Profile Exponent {},Wind Speed Profile Boundary Layer Thickness {m},Air Temperature Gradient Coefficient {K/m}
Environment:Site Atmospheric Variation,0.330,460.000,6.500000E-003
! <Surface Geometry>,Starting Corner,Vertex Input Direction,Coordinate System,Daylight Reference Point Coordinate System,Rectangular (Simple) Surface Coordinate System
 Surface Geometry,UpperLeftCorner,Counterclockwise,RelativeCoordinateSystem,RelativeCoordinateSystem,RelativeToZoneOrigin
! <Surface Heat Transfer Algorithm>, Value {CTF - ConductionTransferFunction | EMPD - MoisturePenetrationDepthConductionTransferFunction | CondFD - ConductionFiniteDifference | HAMT - CombinedHeatAndMoistureFiniteElement} - Description,Inside Surface Max Temperature Limit{C}, Surface Convection Coefficient Lower Limit {W/m2-K}, Surface Convection Coefficient Upper Limit {W/m2-K}
Surface Heat Transfer Algorithm, CTF - ConductionTransferFunction,200,0.10,1000.0
! <Shading Summary>, Number of Fixed Detached Shades, Number of Building Detached Shades, Number of Attached Shades
 Shading Summary,0,0,114
! <Zone Summary>, Number of Zones, Number of Zone Surfaces, Number of SubSurfaces
 Zone Summary,78,757,92
! <Zone Information>,Zone Name,North Axis {deg},Origin X-Coordinate {m},Origin Y-Coordinate {m},Origin Z-Coordinate {m},Centroid X-Coordinate {m},Centroid Y-Coordinate {m},Centroid Z-Coordinate {m},Type,Zone Multiplier,Zone List Multiplier,Minimum X {m},Maximum X {m},Minimum Y {m},Maximum Y {m},Minimum Z {m},Maximum Z {m},Ceiling Height {m},Volume {m3},Zone Inside Convection Algorithm {Simple-Detailed-CeilingDiffuser-TrombeWall},Zone Outside Convection Algorithm {Simple-Detailed-Tarp-MoWitt-DOE-2-BLAST}, Floor Area {m2},Exterior Gross Wall Area {m2},Exterior Net Wall Area {m2},Exterior Window Area {m2}, Number of Surfaces, Number of SubSurfaces, Number of Shading SubSurfaces,  Part of Total Building Area
 Zone Information, 0_BDRM_1_2,0.0,0.00,0.00,0.00,46.48,4.57,5.79,1,1,1,44.20,48.77,0.00,9.14,4.27,7.32,3.05,127.43,TARP,DOE-2,41.81,13.94,9.75,4.18,7,1,2,Yes
 Zone Information, 0_BDRM_1_3,0.0,0.00,0.00,0.00,46.48,4.57,8.84,1,1,1,44.20,48.77,0.00,9.14,7.32,10.36,3.05,127.43,TARP,DOE-2,41.81,13.94,9.75,4.18,7,1,2,Yes
 Zone Information, 0_BDRM_1_4,0.0,0.00,0.00,0.00,46.48,4.57,11.89,1,1,1,44.20,48.77,0.00,9.14,10.36,13.41,3.05,127.43,TARP,DOE-2,41.81,13.94,9.75,4.18,7,1,2,Yes
 Zone Information, 0_BDRM_2_2,0.0,0.00,0.00,0.00,44.96,15.24,5.79,1,1,1,42.67,47.24,10.67,19.81,4.27,7.32,3.05,127.43,TARP,DOE-2,41.81,13.94,9.75,4.18,6,1,0,Yes
 Zone Information, 0_BDRM_2_3,0.0,0.00,0.00,0.00,44.96,15.24,8.84,1,1,1,42.67,47.24,10.67,19.81,7.32,10.36,3.05,127.43,TARP,DOE-2,41.81,13.94,9.75,4.18,6,1,0,Yes
 Zone Information, 0_BDRM_2_4,0.0,0.00,0.00,0.00,44.96,15.24,11.89,1,1,1,42.67,47.24,10.67,19.81,10.36,13.41,3.05,127.43,TARP,DOE-2,41.81,13.94,9.75,4.18,6,1,0,Yes
 Zone Information, 0_BDRM_3_2,0.0,0.00,0.00,0.00,40.39,15.24,5.79,1,1,1,38.10,42.67,10.67,19.81,4.27,7.32,3.05,127.43,TARP,DOE-2,41.81,13.94,9.75,4.18,6,1,0,Yes
 Zone Information, 0_BDRM_3_3,0.0,0.00,0.00,0.00,40.39,15.24,8.84,1,1,1,38.10,42.67,10.67,19.81,7.32,10.36,3.05,127.43,TARP,DOE-2,41.81,13.94,9.75,4.18,6,1,0,Yes
 Zone Information, 0_BDRM_3_4,0.0,0.00,0.00,0.00,40.39,15.24,11.89,1,1,1,38.10,42.67,10.67,19.81,10.36,13.41,3.05,127.43,TARP,DOE-2,41.81,13.94,9.75,4.18,6,1,0,Yes
 Zone Information, 0_BDRM_4_2,0.0,0.00,0.00,0.00,35.81,15.24,5.79,1,1,1,33.53,38.10,10.67,19.81,4.27,7.32,3.05,127.43,TARP,DOE-2,41.81,13.94,9.75,4.18,6,1,0,Yes
 Zone Information, 0_BDRM_4_3,0.0,0.00,0.00,0.00,35.81,15.24,8.84,1,1,1,33.53,38.10,10.67,19.81,7.32,10.36,3.05,127.43,TARP,DOE-2,41.81,13.94,9.75,4.18,6,1,0,Yes
 Zone Information, 0_BDRM_4_4,0.0,0.00,0.00,0.00,35.81,15.24,11.89,1,1,1,33.53,38.10,10.67,19.81,10.36,13.41,3.05,127.43,TARP,DOE-2,41.81,13.94,9.75,4.18,6,1,0,Yes
 Zone Information, 1_BDRM_1_2,0.0,0.00,0.00,0.00,21.34,4.57,5.79,1,1,1,18.29,24.38,0.00,9.14,4.27,7.32,3.05,169.90,TARP,DOE-2,55.74,18.58,13.01,5.57,6,1,2,Yes
 Zone Information, 1_BDRM_1_3,0.0,0.00,0.00,0.00,21.34,4.57,8.84,1,1,1,18.29,24.38,0.00,9.14,7.32,10.36,3.05,169.90,TARP,DOE-2,55.74,18.58,13.01,5.57,6,1,2,Yes
 Zone Information, 1_BDRM_1_4,0.0,0.00,0.00,0.00,21.34,4.57,11.89,1,1,1,18.29,24.38,0.00,9.14,10.36,13.41,3.05,169.90,TARP,DOE-2,55.74,18.58,13.01,5.57,6,1,2,Yes
 Zone Information, 1_BDRM_2_2,0.0,0.00,0.00,0.00,27.41,4.73,5.79,1,1,1,24.38,30.48,0.00,9.14,4.27,7.32,3.05,169.90,TARP,DOE-2,55.74,18.58,13.01,5.57,8,1,2,Yes
 Zone Information, 1_BDRM_2_3,0.0,0.00,0.00,0.00,27.43,4.57,8.84,1,1,1,24.38,30.48,0.00,9.14,7.32,10.36,3.05,169.90,TARP,DOE-2,55.74,18.58,13.01,5.57,6,1,2,Yes
 Zone Information, 1_BDRM_2_4,0.0,0.00,0.00,0.00,27.43,4.57,11.89,1,1,1,24.38,30.48,0.00,9.14,10.36,13.41,3.05,169.90,TARP,DOE-2,55.74,18.58,13.01,5.57,6,1,2,Yes
 Zone Information, 1_BDRM_3_2,0.0,0.00,0.00,0.00,33.55,4.73,5.79,1,1,1,30.48,36.58,0.00,9.14,4.27,7.32,3.05,169.90,TARP,DOE-2,55.74,18.58,13.01,5.57,8,1,2,Yes
 Zone Information, 1_BDRM_3_3,0.0,0.00,0.00,0.00,33.53,4.57,8.84,1,1,1,30.48,36.58,0.00,9.14,7.32,10.36,3.05,169.90,TARP,DOE-2,55.74,18.58,13.01,5.57,6,1,2,Yes
 Zone Information, 1_BDRM_3_4,0.0,0.00,0.00,0.00,33.53,4.57,11.89,1,1,1,30.48,36.58,0.00,9.14,10.36,13.41,3.05,169.90,TARP,DOE-2,55.74,18.58,13.01,5.57,6,1,2,Yes
 Zone Information, 1_BDRM_4_2,0.0,0.00,0.00,0.00,16.00,15.24,5.79,1,1,1,12.19,19.81,10.67,19.81,4.27,7.32,3.05,212.38,TARP,DOE-2,69.68,23.23,16.26,6.97,8,1,0,Yes
 Zone Information, 1_BDRM_4_3,0.0,0.00,0.00,0.00,16.00,15.24,8.84,1,1,1,12.19,19.81,10.67,19.81,7.32,10.36,3.05,212.38,TARP,DOE-2,69.68,23.23,16.26,6.97,7,1,0,Yes
 Zone Information, 1_BDRM_4_4,0.0,0.00,0.00,0.00,16.00,15.24,11.89,1,1,1,12.19,19.81,10.67,19.81,10.36,13.41,3.05,212.38,TARP,DOE-2,69.68,23.23,16.26,6.97,7,1,0,Yes
 Zone Information, 1_BDRM_5_2,0.0,0.00,0.00,0.00,23.62,15.24,5.79,1,1,1,19.81,27.43,10.67,19.81,4.27,7.32,3.05,212.38,TARP,DOE-2,69.68,23.23,16.26,6.97,7,1,0,Yes
 Zone Information, 1_BDRM_5_3,0.0,0.00,0.00,0.00,23.62,15.24,8.84,1,1,1,19.81,27.43,10.67,19.81,7.32,10.36,3.05,212.38,TARP,DOE-2,69.68,23.23,16.26,6.97,6,1,0,Yes
 Zone Information, 1_BDRM_5_4,0.0,0.00,0.00,0.00,23.62,15.24,11.89,1,1,1,19.81,27.43,10.67,19.81,10.36,13.41,3.05,212.38,TARP,DOE-2,69.68,23.23,16.26,6.97,6,1,0,Yes
 Zone Information, 1_BDRM_6_2,0.0,0.00,0.00,0.00,30.48,15.24,5.79,1,1,1,27.43,33.53,10.67,19.81,4.27,7.32,3.05,169.90,TARP,DOE-2,55.74,18.58,13.01,5.57,6,1,0,Yes
 Zone Information, 1_BDRM_6_3,0.0,0.00,0.00,0.00,30.48,15.24,8.84,1,1,1,27.43,33.53,10.67,19.81,7.32,10.36,3.05,169.90,TARP,DOE-2,55.74,18.58,13.01,5.57,6,1,0,Yes
 Zone Information, 1_BDRM_6_4,0.0,0.00,0.00,0.00,30.48,15.24,11.89,1,1,1,27.43,33.53,10.67,19.81,10.36,13.41,3.05,169.90,TARP,DOE-2,55.74,18.58,13.01,5.57,6,1,0,Yes
 Zone Information, 1_BDRM_7_2,0.0,0.00,0.00,0.00,40.39,4.57,5.79,1,1,1,36.58,44.20,0.00,9.14,4.27,7.32,3.05,212.38,TARP,DOE-2,69.68,23.23,16.26,6.97,6,1,2,Yes
 Zone Information, 1_BDRM_7_3,0.0,0.00,0.00,0.00,40.39,4.57,8.84,1,1,1,36.58,44.20,0.00,9.14,7.32,10.36,3.05,212.38,TARP,DOE-2,69.68,23.23,16.26,6.97,6,1,2,Yes
 Zone Information, 1_BDRM_7_4,0.0,0.00,0.00,0.00,40.39,4.57,11.89,1,1,1,36.58,44.20,0.00,9.14,10.36,13.41,3.05,212.38,TARP,DOE-2,69.68,23.23,16.26,6.97,6,1,2,Yes
 Zone Information, 2_BDRM_1_2,0.0,0.00,0.00,0.00,54.33,4.80,5.79,1,1,1,48.77,60.96,0.00,9.14,4.27,7.32,3.05,311.49,TARP,DOE-2,102.19,65.03,45.52,19.51,9,2,4,Yes
 Zone Information, 2_BDRM_1_3,0.0,0.00,0.00,0.00,54.33,4.80,8.84,1,1,1,48.77,60.96,0.00,9.14,7.32,10.36,3.05,311.49,TARP,DOE-2,102.19,65.03,45.52,19.51,9,2,4,Yes
 Zone Information, 2_BDRM_1_4,0.0,0.00,0.00,0.00,54.33,4.80,11.89,1,1,1,48.77,60.96,0.00,9.14,10.36,13.41,3.05,311.49,TARP,DOE-2,102.19,65.03,45.52,19.51,9,2,4,Yes
 Zone Information, 2_BDRM_2_2,0.0,0.00,0.00,0.00,6.38,14.24,5.79,1,1,1,0.00,12.19,9.14,19.81,4.27,7.32,3.05,339.80,TARP,DOE-2,111.48,69.68,48.77,20.90,12,3,4,Yes
 Zone Information, 2_BDRM_2_3,0.0,0.00,0.00,0.00,6.41,13.93,8.84,1,1,1,0.00,12.19,9.14,19.81,7.32,10.36,3.05,339.80,TARP,DOE-2,111.48,69.68,48.77,20.90,11,3,4,Yes
 Zone Information, 2_BDRM_2_4,0.0,0.00,0.00,0.00,6.41,13.93,11.89,1,1,1,0.00,12.19,9.14,19.81,10.36,13.41,3.05,339.80,TARP,DOE-2,111.48,69.68,48.77,20.90,11,3,4,Yes
 Zone Information, 2_BDRM_3_2,0.0,0.00,0.00,0.00,55.67,14.24,5.79,1,1,1,50.29,60.96,9.14,19.81,4.27,7.32,3.05,325.64,TARP,DOE-2,106.84,65.03,45.52,19.51,10,3,4,Yes
 Zone Information, 2_BDRM_3_3,0.0,0.00,0.00,0.00,55.53,13.75,8.84,1,1,1,50.29,60.96,9.14,19.81,7.32,10.36,3.05,325.64,TARP,DOE-2,106.84,65.03,45.52,19.51,9,3,4,Yes
 Zone Information, 2_BDRM_3_4,0.0,0.00,0.00,0.00,55.53,13.75,11.89,1,1,1,50.29,60.96,9.14,19.81,10.36,13.41,3.05,325.64,TARP,DOE-2,106.84,65.03,45.52,19.51,9,3,4,Yes
 Zone Information, 3_BDRM_1_3,0.0,0.00,0.00,0.00,7.62,4.57,8.84,1,1,1,0.00,15.24,0.00,9.14,7.32,10.36,3.05,424.75,TARP,DOE-2,139.35,74.32,52.03,22.30,7,2,4,Yes
 Zone Information, 3_BDRM_1_4,0.0,0.00,0.00,0.00,7.62,4.57,11.89,1,1,1,0.00,15.24,0.00,9.14,10.36,13.41,3.05,424.75,TARP,DOE-2,139.35,74.32,52.03,22.30,7,2,4,Yes
 Zone Information, 3_BDRM_2_2,0.0,0.00,0.00,0.00,7.62,4.57,5.79,1,1,1,0.00,15.24,0.00,9.14,4.27,7.32,3.05,424.75,TARP,DOE-2,139.35,74.32,52.03,22.30,7,2,4,Yes
 Zone Information, BATHRM_1,0.0,0.00,0.00,0.00,27.43,6.86,2.13,1,1,1,25.91,28.96,4.57,9.14,0.00,4.27,4.27,59.47,TARP,DOE-2,13.94,0.00,0.00,0.00,6,0,0,Yes
 Zone Information, BATHRM_2,0.0,0.00,0.00,0.00,33.53,6.86,2.13,1,1,1,32.00,35.05,4.57,9.14,0.00,4.27,4.27,59.47,TARP,DOE-2,13.94,0.00,0.00,0.00,6,0,0,Yes
 Zone Information, COFFEE_SHOP,0.0,0.00,0.00,0.00,7.62,4.57,2.13,1,1,1,0.00,15.24,0.00,9.14,0.00,4.27,4.27,594.65,TARP,DOE-2,139.35,104.05,72.84,31.22,7,2,4,Yes
 Zone Information, COMMUNITY_RM,0.0,0.00,0.00,0.00,35.05,15.24,2.13,1,1,1,27.43,42.67,10.67,19.81,0.00,4.27,4.27,594.65,TARP,DOE-2,139.35,65.03,45.52,19.51,8,1,0,Yes
 Zone Information, CORRIDOR,0.0,0.00,0.00,0.00,30.48,9.91,2.13,1,1,1,0.00,60.96,9.14,10.67,0.00,4.27,4.27,396.44,TARP,DOE-2,92.90,13.01,9.10,3.90,28,2,4,Yes
 Zone Information, CORRIDOR_2,0.0,0.00,0.00,0.00,30.48,9.91,5.79,1,1,1,6.10,54.86,9.14,10.67,4.27,7.32,3.05,226.53,TARP,DOE-2,74.32,0.00,0.00,0.00,24,0,0,Yes
 Zone Information, CORRIDOR_3,0.0,0.00,0.00,0.00,30.48,9.91,8.84,1,1,1,6.10,54.86,9.14,10.67,7.32,10.36,3.05,226.53,TARP,DOE-2,74.32,0.00,0.00,0.00,23,0,0,Yes
 Zone Information, CORRIDOR_4,0.0,0.00,0.00,0.00,30.48,9.91,11.89,1,1,1,6.10,54.86,9.14,10.67,10.36,13.41,3.05,226.53,TARP,DOE-2,74.32,0.00,0.00,0.00,23,0,0,Yes
 Zone Information, ELEVATOR_1,0.0,0.00,0.00,0.00,10.67,12.19,2.13,1,1,1,9.14,12.19,10.67,13.72,0.00,4.27,4.27,39.64,TARP,DOE-2,9.29,0.00,0.00,0.00,6,0,0,Yes
 Zone Information, ELEVATOR_1_2,0.0,0.00,0.00,0.00,10.67,12.19,5.79,1,1,1,9.14,12.19,10.67,13.72,4.27,7.32,3.05,28.32,TARP,DOE-2,9.29,0.00,0.00,0.00,6,0,0,Yes
 Zone Information, ELEVATOR_1_3,0.0,0.00,0.00,0.00,10.67,12.19,8.84,1,1,1,9.14,12.19,10.67,13.72,7.32,10.36,3.05,28.32,TARP,DOE-2,9.29,0.00,0.00,0.00,6,0,0,Yes
 Zone Information, ELEVATOR_1_4,0.0,0.00,0.00,0.00,10.67,12.19,11.89,1,1,1,9.14,12.19,10.67,13.72,10.36,13.41,3.05,28.32,TARP,DOE-2,9.29,0.00,0.00,0.00,6,0,0,Yes
 Zone Information, ELEVATOR_2,0.0,0.00,0.00,0.00,50.29,7.62,2.13,1,1,1,48.77,51.82,6.10,9.14,0.00,4.27,4.27,39.64,TARP,DOE-2,9.29,0.00,0.00,0.00,6,0,0,Yes
 Zone Information, ELEVATOR_2_2,0.0,0.00,0.00,0.00,50.29,7.62,5.79,1,1,1,48.77,51.82,6.10,9.14,4.27,7.32,3.05,28.32,TARP,DOE-2,9.29,0.00,0.00,0.00,6,0,0,Yes
 Zone Information, ELEVATOR_2_3,0.0,0.00,0.00,0.00,50.29,7.62,8.84,1,1,1,48.77,51.82,6.10,9.14,7.32,10.36,3.05,28.32,TARP,DOE-2,9.29,0.00,0.00,0.00,6,0,0,Yes
 Zone Information, ELEVATOR_2_4,0.0,0.00,0.00,0.00,50.29,7.62,11.89,1,1,1,48.77,51.82,6.10,9.14,10.36,13.41,3.05,28.32,TARP,DOE-2,9.29,0.00,0.00,0.00,6,0,0,Yes
 Zone Information, GARBAGE 1,0.0,0.00,0.00,0.00,44.96,15.24,2.13,1,1,1,42.67,47.24,10.67,19.81,0.00,4.27,4.27,178.40,TARP,DOE-2,41.81,19.51,13.66,5.85,6,1,0,Yes
 Zone Information, GYM 1,0.0,0.00,0.00,0.00,55.63,15.24,2.13,1,1,1,50.29,60.96,10.67,19.81,0.00,4.27,4.27,416.26,TARP,DOE-2,97.55,84.54,59.18,25.36,7,2,2,Yes
 Zone Information, LOBBY_ENTRY,0.0,0.00,0.00,0.00,30.48,4.13,2.13,1,1,1,25.91,35.05,0.00,9.14,0.00,4.27,4.27,237.86,TARP,DOE-2,55.74,39.02,27.31,11.71,13,3,6,Yes
 Zone Information, LT_RETAIL_1,0.0,0.00,0.00,0.00,41.91,4.57,2.13,1,1,1,35.05,48.77,0.00,9.14,0.00,4.27,4.27,535.19,TARP,DOE-2,125.42,58.53,40.97,17.56,11,1,2,Yes
 Zone Information, LT_RETAIL_2,0.0,0.00,0.00,0.00,54.43,4.74,2.13,1,1,1,48.77,60.96,0.00,9.14,0.00,4.27,4.27,436.08,TARP,DOE-2,102.19,91.04,63.73,27.31,10,3,6,Yes
 Zone Information, LT_RETAIL_3,0.0,0.00,0.00,0.00,22.10,15.24,2.13,1,1,1,16.76,27.43,10.67,19.81,0.00,4.27,4.27,416.26,TARP,DOE-2,97.55,45.52,31.87,13.66,7,1,0,Yes
 Zone Information, LT_RETAIL_4,0.0,0.00,0.00,0.00,6.53,15.07,2.13,1,1,1,0.00,12.19,10.67,19.81,0.00,4.27,4.27,436.08,TARP,DOE-2,102.19,91.04,63.73,27.31,10,3,2,Yes
 Zone Information, MAIL_SHIPPING,0.0,0.00,0.00,0.00,14.48,15.24,2.13,1,1,1,12.19,16.76,10.67,19.81,0.00,4.27,4.27,178.40,TARP,DOE-2,41.81,19.51,13.66,5.85,7,1,0,Yes
 Zone Information, OFFICE 1,0.0,0.00,0.00,0.00,22.10,4.57,2.13,1,1,1,18.29,25.91,0.00,9.14,0.00,4.27,4.27,297.33,TARP,DOE-2,69.68,32.52,22.76,9.75,8,1,2,Yes
 Zone Information, STAIRWELL_1_2,0.0,0.00,0.00,0.00,48.77,15.24,5.79,1,1,1,47.24,50.29,10.67,19.81,4.27,7.32,3.05,84.95,TARP,DOE-2,27.87,9.29,6.50,2.79,6,1,0,Yes
 Zone Information, STAIRWELL_1_3,0.0,0.00,0.00,0.00,48.77,15.24,8.84,1,1,1,47.24,50.29,10.67,19.81,7.32,10.36,3.05,84.95,TARP,DOE-2,27.87,9.29,6.50,2.79,6,1,0,Yes
 Zone Information, STAIRWELL_1_4,0.0,0.00,0.00,0.00,48.77,15.24,11.89,1,1,1,47.24,50.29,10.67,19.81,10.36,13.41,3.05,84.95,TARP,DOE-2,27.87,9.29,6.50,2.79,6,1,0,Yes
 Zone Information, STAIRWELL_2_2,0.0,0.00,0.00,0.00,16.76,4.57,5.79,1,1,1,15.24,18.29,0.00,9.14,4.27,7.32,3.05,84.95,TARP,DOE-2,27.87,9.29,6.50,2.79,6,1,2,Yes
 Zone Information, STAIRWELL_2_3,0.0,0.00,0.00,0.00,16.76,4.57,8.84,1,1,1,15.24,18.29,0.00,9.14,7.32,10.36,3.05,84.95,TARP,DOE-2,27.87,9.29,6.50,2.79,6,1,2,Yes
 Zone Information, STAIRWELL_2_4,0.0,0.00,0.00,0.00,16.76,4.57,11.89,1,1,1,15.24,18.29,0.00,9.14,10.36,13.41,3.05,84.95,TARP,DOE-2,27.87,9.29,6.50,2.79,6,1,2,Yes
 Zone Information, STAIR_1,0.0,0.00,0.00,0.00,16.76,4.57,2.13,1,1,1,15.24,18.29,0.00,9.14,0.00,4.27,4.27,118.93,TARP,DOE-2,27.87,13.01,9.10,3.90,6,1,2,Yes
 Zone Information, STAIR_2,0.0,0.00,0.00,0.00,48.77,15.24,2.13,1,1,1,47.24,50.29,10.67,19.81,0.00,4.27,4.27,118.93,TARP,DOE-2,27.87,13.01,9.10,3.90,6,1,0,Yes
! <Zone Internal Gains Nominal>,Zone Name, Floor Area {m2},# Occupants,Area per Occupant {m2/person},Occupant per Area {person/m2},Interior Lighting {W/m2},Electric Load {W/m2},Gas Load {W/m2},Other Load {W/m2},Hot Water Eq {W/m2},Steam Equipment {W/m2},Sum Loads per Area {W/m2},Outdoor Controlled Baseboard Heat
 Zone Internal Gains Nominal, 0_BDRM_1_2,41.81,0.6,66.359,1.507E-002,2.316,1183.623,0.000,313.401,0.000,0.000,1499.340,No
 Zone Internal Gains Nominal, 0_BDRM_1_3,41.81,0.6,66.359,1.507E-002,2.316,1183.623,0.000,313.401,0.000,0.000,1499.340,No
 Zone Internal Gains Nominal, 0_BDRM_1_4,41.81,0.6,66.359,1.507E-002,2.316,1183.623,0.000,313.401,0.000,0.000,1499.340,No
 Zone Internal Gains Nominal, 0_BDRM_2_2,41.81,0.6,66.359,1.507E-002,2.316,1183.623,0.000,313.401,0.000,0.000,1499.340,No
 Zone Internal Gains Nominal, 0_BDRM_2_3,41.81,0.6,66.359,1.507E-002,2.316,1183.623,0.000,313.401,0.000,0.000,1499.340,No
 Zone Internal Gains Nominal, 0_BDRM_2_4,41.81,0.6,66.359,1.507E-002,2.316,1183.623,0.000,313.401,0.000,0.000,1499.340,No
 Zone Internal Gains Nominal, 0_BDRM_3_2,41.81,0.6,66.359,1.507E-002,2.316,1183.623,0.000,313.401,0.000,0.000,1499.340,No
 Zone Internal Gains Nominal, 0_BDRM_3_3,41.81,0.6,66.359,1.507E-002,2.316,1183.623,0.000,313.401,0.000,0.000,1499.340,No
 Zone Internal Gains Nominal, 0_BDRM_3_4,41.81,0.6,66.359,1.507E-002,2.316,1183.623,0.000,313.401,0.000,0.000,1499.340,No
 Zone Internal Gains Nominal, 0_BDRM_4_2,41.81,0.6,66.359,1.507E-002,2.316,1183.623,0.000,313.401,0.000,0.000,1499.340,No
 Zone Internal Gains Nominal, 0_BDRM_4_3,41.81,0.6,66.359,1.507E-002,2.316,1183.623,0.000,313.401,0.000,0.000,1499.340,No
 Zone Internal Gains Nominal, 0_BDRM_4_4,41.81,0.6,66.359,1.507E-002,2.316,1183.623,0.000,313.401,0.000,0.000,1499.340,No
 Zone Internal Gains Nominal, 1_BDRM_1_2,55.74,1.6,35.962,2.781E-002,1.981,1182.694,0.000,313.643,0.000,0.000,1498.318,No
 Zone Internal Gains Nominal, 1_BDRM_1_3,55.74,1.6,35.962,2.781E-002,1.981,1182.694,0.000,313.643,0.000,0.000,1498.318,No
 Zone Internal Gains Nominal, 1_BDRM_1_4,55.74,1.6,35.962,2.781E-002,1.981,1182.694,0.000,313.643,0.000,0.000,1498.318,No
 Zone Internal Gains Nominal, 1_BDRM_2_2,55.74,1.6,35.962,2.781E-002,1.981,1182.694,0.000,313.643,0.000,0.000,1498.318,No
 Zone Internal Gains Nominal, 1_BDRM_2_3,55.74,1.6,35.962,2.781E-002,1.981,1182.694,0.000,313.643,0.000,0.000,1498.318,No
 Zone Internal Gains Nominal, 1_BDRM_2_4,55.74,1.6,35.962,2.781E-002,1.981,1182.694,0.000,313.643,0.000,0.000,1498.318,No
 Zone Internal Gains Nominal, 1_BDRM_3_2,55.74,1.6,35.962,2.781E-002,1.981,1182.694,0.000,313.643,0.000,0.000,1498.318,No
 Zone Internal Gains Nominal, 1_BDRM_3_3,55.74,1.6,35.962,2.781E-002,1.981,1182.694,0.000,313.643,0.000,0.000,1498.318,No
 Zone Internal Gains Nominal, 1_BDRM_3_4,55.74,1.6,35.962,2.781E-002,1.981,1182.694,0.000,313.643,0.000,0.000,1498.318,No
 Zone Internal Gains Nominal, 1_BDRM_4_2,69.68,1.6,44.953,2.225E-002,1.780,946.265,0.000,250.914,0.000,0.000,1198.959,No
 Zone Internal Gains Nominal, 1_BDRM_4_3,69.68,1.6,44.953,2.225E-002,1.780,946.265,0.000,250.914,0.000,0.000,1198.959,No
 Zone Internal Gains Nominal, 1_BDRM_4_4,69.68,1.6,44.953,2.225E-002,1.780,946.265,0.000,250.914,0.000,0.000,1198.959,No
 Zone Internal Gains Nominal, 1_BDRM_5_2,69.68,1.6,44.953,2.225E-002,1.780,946.265,0.000,250.914,0.000,0.000,1198.959,No
 Zone Internal Gains Nominal, 1_BDRM_5_3,69.68,1.6,44.953,2.225E-002,1.780,946.265,0.000,250.914,0.000,0.000,1198.959,No
 Zone Internal Gains Nominal, 1_BDRM_5_4,69.68,1.6,44.953,2.225E-002,1.780,946.265,0.000,250.914,0.000,0.000,1198.959,No
 Zone Internal Gains Nominal, 1_BDRM_6_2,55.74,1.6,35.962,2.781E-002,1.981,1182.694,0.000,313.643,0.000,0.000,1498.318,No
 Zone Internal Gains Nominal, 1_BDRM_6_3,55.74,1.6,35.962,2.781E-002,1.981,1182.694,0.000,313.643,0.000,0.000,1498.318,No
 Zone Internal Gains Nominal, 1_BDRM_6_4,55.74,1.6,35.962,2.781E-002,1.981,1182.694,0.000,313.643,0.000,0.000,1498.318,No
 Zone Internal Gains Nominal, 1_BDRM_7_2,69.68,1.6,44.953,2.225E-002,1.780,946.265,0.000,250.914,0.000,0.000,1198.959,No
 Zone Internal Gains Nominal, 1_BDRM_7_3,69.68,1.6,44.953,2.225E-002,1.780,946.265,0.000,250.914,0.000,0.000,1198.959,No
 Zone Internal Gains Nominal, 1_BDRM_7_4,69.68,1.6,44.953,2.225E-002,1.780,946.265,0.000,250.914,0.000,0.000,1198.959,No
 Zone Internal Gains Nominal, 2_BDRM_1_2,102.19,2.5,41.374,2.417E-002,1.525,778.297,0.000,163.665,0.000,0.000,943.487,No
 Zone Internal Gains Nominal, 2_BDRM_1_3,102.19,2.5,41.374,2.417E-002,1.525,778.297,0.000,163.665,0.000,0.000,943.487,No
 Zone Internal Gains Nominal, 2_BDRM_1_4,102.19,2.5,41.374,2.417E-002,1.525,778.297,0.000,163.665,0.000,0.000,943.487,No
 Zone Internal Gains Nominal, 2_BDRM_2_2,111.48,2.5,45.135,2.216E-002,1.479,713.485,0.000,150.026,0.000,0.000,864.990,No
 Zone Internal Gains Nominal, 2_BDRM_2_3,111.48,2.5,45.135,2.216E-002,1.479,713.485,0.000,150.026,0.000,0.000,864.990,No
 Zone Internal Gains Nominal, 2_BDRM_2_4,111.48,2.5,45.135,2.216E-002,1.479,713.485,0.000,150.026,0.000,0.000,864.990,No
 Zone Internal Gains Nominal, 2_BDRM_3_2,106.84,2.5,43.254,2.312E-002,1.501,744.482,0.000,156.549,0.000,0.000,902.532,No
 Zone Internal Gains Nominal, 2_BDRM_3_3,106.84,2.5,43.254,2.312E-002,1.501,744.482,0.000,156.549,0.000,0.000,902.532,No
 Zone Internal Gains Nominal, 2_BDRM_3_4,106.84,2.5,43.254,2.312E-002,1.501,744.482,0.000,156.549,0.000,0.000,902.532,No
 Zone Internal Gains Nominal, 3_BDRM_1_3,139.35,3.4,41.108,2.433E-002,1.379,672.801,0.000,118.178,0.000,0.000,792.358,No
 Zone Internal Gains Nominal, 3_BDRM_1_4,139.35,3.4,41.108,2.433E-002,1.379,672.801,0.000,118.178,0.000,0.000,792.358,No
 Zone Internal Gains Nominal, 3_BDRM_2_2,139.35,3.4,41.108,2.433E-002,1.379,672.801,0.000,118.178,0.000,0.000,792.358,No
 Zone Internal Gains Nominal, BATHRM_1,13.94,0.4,32.598,3.068E-002,10.549,0.000,0.000,0.000,0.000,0.000,10.549,No
 Zone Internal Gains Nominal, BATHRM_2,13.94,0.4,32.598,3.068E-002,10.549,0.000,0.000,0.000,0.000,0.000,10.549,No
 Zone Internal Gains Nominal, COFFEE_SHOP,139.35,105.0,1.327,0.753,6.997,116.788,0.000,0.000,0.000,0.000,123.785,No
 Zone Internal Gains Nominal, COMMUNITY_RM,139.35,75.0,1.858,0.538,13.240,6.178,0.000,0.000,0.000,0.000,19.418,No
 Zone Internal Gains Nominal, CORRIDOR,92.90,0.0,N/A,0.000,8.525,0.000,0.000,0.000,0.000,0.000,8.525,No
 Zone Internal Gains Nominal, CORRIDOR_2,74.32,0.0,N/A,0.000,8.525,0.000,0.000,0.000,0.000,0.000,8.525,No
 Zone Internal Gains Nominal, CORRIDOR_3,74.32,0.0,N/A,0.000,8.525,0.000,0.000,0.000,0.000,0.000,8.525,No
 Zone Internal Gains Nominal, CORRIDOR_4,74.32,0.0,N/A,0.000,8.525,0.000,0.000,0.000,0.000,0.000,8.525,No
 Zone Internal Gains Nominal, ELEVATOR_1,9.29,0.0,N/A,0.000,0.000,0.000,0.000,0.000,0.000,0.000,0.000,No
 Zone Internal Gains Nominal, ELEVATOR_1_2,9.29,0.0,N/A,0.000,0.000,0.000,0.000,0.000,0.000,0.000,0.000,No
 Zone Internal Gains Nominal, ELEVATOR_1_3,9.29,0.0,N/A,0.000,0.000,0.000,0.000,0.000,0.000,0.000,0.000,No
 Zone Internal Gains Nominal, ELEVATOR_1_4,9.29,0.0,N/A,0.000,0.000,2199.423,0.000,0.000,0.000,0.000,2199.423,No
 Zone Internal Gains Nominal, ELEVATOR_2,9.29,0.0,N/A,0.000,0.000,0.000,0.000,0.000,0.000,0.000,0.000,No
 Zone Internal Gains Nominal, ELEVATOR_2_2,9.29,0.0,N/A,0.000,0.000,0.000,0.000,0.000,0.000,0.000,0.000,No
 Zone Internal Gains Nominal, ELEVATOR_2_3,9.29,0.0,N/A,0.000,0.000,0.000,0.000,0.000,0.000,0.000,0.000,No
 Zone Internal Gains Nominal, ELEVATOR_2_4,9.29,0.0,N/A,0.000,0.000,2199.423,0.000,0.000,0.000,0.000,2199.423,No
 Zone Internal Gains Nominal, GARBAGE 1,41.81,0.0,N/A,0.000,6.781,0.000,0.000,0.000,0.000,0.000,6.781,No
 Zone Internal Gains Nominal, GYM 1,97.55,20.9,4.659,0.215,9.300,18.622,0.000,0.000,0.000,0.000,27.922,No
 Zone Internal Gains Nominal, LOBBY_ENTRY,55.74,0.0,N/A,0.000,9.688,0.000,0.000,0.000,0.000,0.000,9.688,No
 Zone Internal Gains Nominal, LT_RETAIL_1,125.42,20.3,6.194,0.161,15.500,3.229,0.000,0.000,0.000,0.000,18.729,No
 Zone Internal Gains Nominal, LT_RETAIL_2,102.19,16.5,6.194,0.161,15.500,3.229,0.000,0.000,0.000,0.000,18.729,No
 Zone Internal Gains Nominal, LT_RETAIL_3,97.55,15.8,6.194,0.161,15.500,3.229,0.000,0.000,0.000,0.000,18.729,No
 Zone Internal Gains Nominal, LT_RETAIL_4,102.19,16.5,6.194,0.161,15.500,3.229,0.000,0.000,0.000,0.000,18.729,No
 Zone Internal Gains Nominal, MAIL_SHIPPING,41.81,0.0,N/A,0.000,6.781,0.000,0.000,0.000,0.000,0.000,6.781,No
 Zone Internal Gains Nominal, OFFICE 1,69.68,0.8,88.479,1.130E-002,11.948,6.670,0.000,0.000,0.000,0.000,18.618,No
 Zone Internal Gains Nominal, STAIRWELL_1_2,27.87,0.0,N/A,0.000,7.427,0.000,0.000,0.000,0.000,0.000,7.427,No
 Zone Internal Gains Nominal, STAIRWELL_1_3,27.87,0.0,N/A,0.000,7.427,0.000,0.000,0.000,0.000,0.000,7.427,No
 Zone Internal Gains Nominal, STAIRWELL_1_4,27.87,0.0,N/A,0.000,7.427,0.000,0.000,0.000,0.000,0.000,7.427,No
 Zone Internal Gains Nominal, STAIRWELL_2_2,27.87,0.0,N/A,0.000,7.427,0.000,0.000,0.000,0.000,0.000,7.427,No
 Zone Internal Gains Nominal, STAIRWELL_2_3,27.87,0.0,N/A,0.000,7.427,0.000,0.000,0.000,0.000,0.000,7.427,No
 Zone Internal Gains Nominal, STAIRWELL_2_4,27.87,0.0,N/A,0.000,7.427,0.000,0.000,0.000,0.000,0.000,7.427,No
 Zone Internal Gains Nominal, STAIR_1,27.87,0.0,N/A,0.000,7.427,0.000,0.000,0.000,0.000,0.000,7.427,No
 Zone Internal Gains Nominal, STAIR_2,27.87,0.0,N/A,0.000,7.427,0.000,0.000,0.000,0.000,0.000,7.427,No
! <People Internal Gains Nominal>,Name,Schedule Name,Zone Name,Zone Floor Area {m2},# Zone Occupants,Number of People {},People/Floor Area {person/m2},Floor Area per person {m2/person},Fraction Radiant,Fraction Convected,Sensible Fraction Calculation,Activity level,ASHRAE 55 Warnings,Carbon Dioxide Generation Rate,Nominal Minimum Number of People,Nominal Maximum Number of People
 People Internal Gains Nominal, RES OCCUPANTS|BUILDING UNIT 001|0_BDRM_1_2,RES OCCUPANTS SCHEDULE,0_BDRM_1_2,41.81,0.6,0.6,1.507E-002,66.359,0.320,0.680,0.573,SCHEDULE RULESET 1,No,0.0000,0,1
 People Internal Gains Nominal, RES OCCUPANTS|BUILDING UNIT 005|0_BDRM_1_3,RES OCCUPANTS SCHEDULE,0_BDRM_1_3,41.81,0.6,0.6,1.507E-002,66.359,0.320,0.680,0.573,SCHEDULE RULESET 1,No,0.0000,0,1
 People Internal Gains Nominal, RES OCCUPANTS|BUILDING UNIT 009|0_BDRM_1_4,RES OCCUPANTS SCHEDULE,0_BDRM_1_4,41.81,0.6,0.6,1.507E-002,66.359,0.320,0.680,0.573,SCHEDULE RULESET 1,No,0.0000,0,1
 People Internal Gains Nominal, RES OCCUPANTS|BUILDING UNIT 002|0_BDRM_2_2,RES OCCUPANTS SCHEDULE,0_BDRM_2_2,41.81,0.6,0.6,1.507E-002,66.359,0.320,0.680,0.573,SCHEDULE RULESET 1,No,0.0000,0,1
 People Internal Gains Nominal, RES OCCUPANTS|BUILDING UNIT 006|0_BDRM_2_3,RES OCCUPANTS SCHEDULE,0_BDRM_2_3,41.81,0.6,0.6,1.507E-002,66.359,0.320,0.680,0.573,SCHEDULE RULESET 1,No,0.0000,0,1
 People Internal Gains Nominal, RES OCCUPANTS|BUILDING UNIT 010|0_BDRM_2_4,RES OCCUPANTS SCHEDULE,0_BDRM_2_4,41.81,0.6,0.6,1.507E-002,66.359,0.320,0.680,0.573,SCHEDULE RULESET 1,No,0.0000,0,1
 People Internal Gains Nominal, RES OCCUPANTS|BUILDING UNIT 003|0_BDRM_3_2,RES OCCUPANTS SCHEDULE,0_BDRM_3_2,41.81,0.6,0.6,1.507E-002,66.359,0.320,0.680,0.573,SCHEDULE RULESET 1,No,0.0000,0,1
 People Internal Gains Nominal, RES OCCUPANTS|BUILDING UNIT 007|0_BDRM_3_3,RES OCCUPANTS SCHEDULE,0_BDRM_3_3,41.81,0.6,0.6,1.507E-002,66.359,0.320,0.680,0.573,SCHEDULE RULESET 1,No,0.0000,0,1
 People Internal Gains Nominal, RES OCCUPANTS|BUILDING UNIT 011|0_BDRM_3_4,RES OCCUPANTS SCHEDULE,0_BDRM_3_4,41.81,0.6,0.6,1.507E-002,66.359,0.320,0.680,0.573,SCHEDULE RULESET 1,No,0.0000,0,1
 People Internal Gains Nominal, RES OCCUPANTS|BUILDING UNIT 004|0_BDRM_4_2,RES OCCUPANTS SCHEDULE,0_BDRM_4_2,41.81,0.6,0.6,1.507E-002,66.359,0.320,0.680,0.573,SCHEDULE RULESET 1,No,0.0000,0,1
 People Internal Gains Nominal, RES OCCUPANTS|BUILDING UNIT 008|0_BDRM_4_3,RES OCCUPANTS SCHEDULE,0_BDRM_4_3,41.81,0.6,0.6,1.507E-002,66.359,0.320,0.680,0.573,SCHEDULE RULESET 1,No,0.0000,0,1
 People Internal Gains Nominal, RES OCCUPANTS|BUILDING UNIT 012|0_BDRM_4_4,RES OCCUPANTS SCHEDULE,0_BDRM_4_4,41.81,0.6,0.6,1.507E-002,66.359,0.320,0.680,0.573,SCHEDULE RULESET 1,No,0.0000,0,1
 People Internal Gains Nominal, RES OCCUPANTS|BUILDING UNIT 101|1_BDRM_1_2,RES OCCUPANTS SCHEDULE,1_BDRM_1_2,55.74,1.6,1.6,2.781E-002,35.962,0.320,0.680,0.573,SCHEDULE RULESET 1,No,0.0000,0,2
 People Internal Gains Nominal, RES OCCUPANTS|BUILDING UNIT 108|1_BDRM_1_3,RES OCCUPANTS SCHEDULE,1_BDRM_1_3,55.74,1.6,1.6,2.781E-002,35.962,0.320,0.680,0.573,SCHEDULE RULESET 1,No,0.0000,0,2
 People Internal Gains Nominal, RES OCCUPANTS|BUILDING UNIT 115|1_BDRM_1_4,RES OCCUPANTS SCHEDULE,1_BDRM_1_4,55.74,1.6,1.6,2.781E-002,35.962,0.320,0.680,0.573,SCHEDULE RULESET 1,No,0.0000,0,2
 People Internal Gains Nominal, RES OCCUPANTS|BUILDING UNIT 102|1_BDRM_2_2,RES OCCUPANTS SCHEDULE,1_BDRM_2_2,55.74,1.6,1.6,2.781E-002,35.962,0.320,0.680,0.573,SCHEDULE RULESET 1,No,0.0000,0,2
 People Internal Gains Nominal, RES OCCUPANTS|BUILDING UNIT 109|1_BDRM_2_3,RES OCCUPANTS SCHEDULE,1_BDRM_2_3,55.74,1.6,1.6,2.781E-002,35.962,0.320,0.680,0.573,SCHEDULE RULESET 1,No,0.0000,0,2
 People Internal Gains Nominal, RES OCCUPANTS|BUILDING UNIT 116|1_BDRM_2_4,RES OCCUPANTS SCHEDULE,1_BDRM_2_4,55.74,1.6,1.6,2.781E-002,35.962,0.320,0.680,0.573,SCHEDULE RULESET 1,No,0.0000,0,2
 People Internal Gains Nominal, RES OCCUPANTS|BUILDING UNIT 103|1_BDRM_3_2,RES OCCUPANTS SCHEDULE,1_BDRM_3_2,55.74,1.6,1.6,2.781E-002,35.962,0.320,0.680,0.573,SCHEDULE RULESET 1,No,0.0000,0,2
 People Internal Gains Nominal, RES OCCUPANTS|BUILDING UNIT 110|1_BDRM_3_3,RES OCCUPANTS SCHEDULE,1_BDRM_3_3,55.74,1.6,1.6,2.781E-002,35.962,0.320,0.680,0.573,SCHEDULE RULESET 1,No,0.0000,0,2
 People Internal Gains Nominal, RES OCCUPANTS|BUILDING UNIT 117|1_BDRM_3_4,RES OCCUPANTS SCHEDULE,1_BDRM_3_4,55.74,1.6,1.6,2.781E-002,35.962,0.320,0.680,0.573,SCHEDULE RULESET 1,No,0.0000,0,2
 People Internal Gains Nominal, RES OCCUPANTS|BUILDING UNIT 104|1_BDRM_4_2,RES OCCUPANTS SCHEDULE,1_BDRM_4_2,69.68,1.6,1.6,2.225E-002,44.953,0.320,0.680,0.573,SCHEDULE RULESET 1,No,0.0000,0,2
 People Internal Gains Nominal, RES OCCUPANTS|BUILDING UNIT 111|1_BDRM_4_3,RES OCCUPANTS SCHEDULE,1_BDRM_4_3,69.68,1.6,1.6,2.225E-002,44.953,0.320,0.680,0.573,SCHEDULE RULESET 1,No,0.0000,0,2
 People Internal Gains Nominal, RES OCCUPANTS|BUILDING UNIT 118|1_BDRM_4_4,RES OCCUPANTS SCHEDULE,1_BDRM_4_4,69.68,1.6,1.6,2.225E-002,44.953,0.320,0.680,0.573,SCHEDULE RULESET 1,No,0.0000,0,2
 People Internal Gains Nominal, RES OCCUPANTS|BUILDING UNIT 105|1_BDRM_5_2,RES OCCUPANTS SCHEDULE,1_BDRM_5_2,69.68,1.6,1.6,2.225E-002,44.953,0.320,0.680,0.573,SCHEDULE RULESET 1,No,0.0000,0,2
 People Internal Gains Nominal, RES OCCUPANTS|BUILDING UNIT 112|1_BDRM_5_3,RES OCCUPANTS SCHEDULE,1_BDRM_5_3,69.68,1.6,1.6,2.225E-002,44.953,0.320,0.680,0.573,SCHEDULE RULESET 1,No,0.0000,0,2
 People Internal Gains Nominal, RES OCCUPANTS|BUILDING UNIT 119|1_BDRM_5_4,RES OCCUPANTS SCHEDULE,1_BDRM_5_4,69.68,1.6,1.6,2.225E-002,44.953,0.320,0.680,0.573,SCHEDULE RULESET 1,No,0.0000,0,2
 People Internal Gains Nominal, RES OCCUPANTS|BUILDING UNIT 106|1_BDRM_6_2,RES OCCUPANTS SCHEDULE,1_BDRM_6_2,55.74,1.6,1.6,2.781E-002,35.962,0.320,0.680,0.573,SCHEDULE RULESET 1,No,0.0000,0,2
 People Internal Gains Nominal, RES OCCUPANTS|BUILDING UNIT 113|1_BDRM_6_3,RES OCCUPANTS SCHEDULE,1_BDRM_6_3,55.74,1.6,1.6,2.781E-002,35.962,0.320,0.680,0.573,SCHEDULE RULESET 1,No,0.0000,0,2
 People Internal Gains Nominal, RES OCCUPANTS|BUILDING UNIT 120|1_BDRM_6_4,RES OCCUPANTS SCHEDULE,1_BDRM_6_4,55.74,1.6,1.6,2.781E-002,35.962,0.320,0.680,0.573,SCHEDULE RULESET 1,No,0.0000,0,2
 People Internal Gains Nominal, RES OCCUPANTS|BUILDING UNIT 107|1_BDRM_7_2,RES OCCUPANTS SCHEDULE,1_BDRM_7_2,69.68,1.6,1.6,2.225E-002,44.953,0.320,0.680,0.573,SCHEDULE RULESET 1,No,0.0000,0,2
 People Internal Gains Nominal, RES OCCUPANTS|BUILDING UNIT 114|1_BDRM_7_3,RES OCCUPANTS SCHEDULE,1_BDRM_7_3,69.68,1.6,1.6,2.225E-002,44.953,0.320,0.680,0.573,SCHEDULE RULESET 1,No,0.0000,0,2
 People Internal Gains Nominal, RES OCCUPANTS|BUILDING UNIT 121|1_BDRM_7_4,RES OCCUPANTS SCHEDULE,1_BDRM_7_4,69.68,1.6,1.6,2.225E-002,44.953,0.320,0.680,0.573,SCHEDULE RULESET 1,No,0.0000,0,2
 People Internal Gains Nominal, RES OCCUPANTS|BUILDING UNIT 201|2_BDRM_1_2,RES OCCUPANTS SCHEDULE,2_BDRM_1_2,102.19,2.5,2.5,2.417E-002,41.374,0.320,0.680,0.573,SCHEDULE RULESET 1,No,0.0000,0,2
 People Internal Gains Nominal, RES OCCUPANTS|BUILDING UNIT 204|2_BDRM_1_3,RES OCCUPANTS SCHEDULE,2_BDRM_1_3,102.19,2.5,2.5,2.417E-002,41.374,0.320,0.680,0.573,SCHEDULE RULESET 1,No,0.0000,0,2
 People Internal Gains Nominal, RES OCCUPANTS|BUILDING UNIT 207|2_BDRM_1_4,RES OCCUPANTS SCHEDULE,2_BDRM_1_4,102.19,2.5,2.5,2.417E-002,41.374,0.320,0.680,0.573,SCHEDULE RULESET 1,No,0.0000,0,2
 People Internal Gains Nominal, RES OCCUPANTS|BUILDING UNIT 202|2_BDRM_2_2,RES OCCUPANTS SCHEDULE,2_BDRM_2_2,111.48,2.5,2.5,2.216E-002,45.135,0.320,0.680,0.573,SCHEDULE RULESET 1,No,0.0000,0,2
 People Internal Gains Nominal, RES OCCUPANTS|BUILDING UNIT 205|2_BDRM_2_3,RES OCCUPANTS SCHEDULE,2_BDRM_2_3,111.48,2.5,2.5,2.216E-002,45.135,0.320,0.680,0.573,SCHEDULE RULESET 1,No,0.0000,0,2
 People Internal Gains Nominal, RES OCCUPANTS|BUILDING UNIT 208|2_BDRM_2_4,RES OCCUPANTS SCHEDULE,2_BDRM_2_4,111.48,2.5,2.5,2.216E-002,45.135,0.320,0.680,0.573,SCHEDULE RULESET 1,No,0.0000,0,2
 People Internal Gains Nominal, RES OCCUPANTS|BUILDING UNIT 203|2_BDRM_3_2,RES OCCUPANTS SCHEDULE,2_BDRM_3_2,106.84,2.5,2.5,2.312E-002,43.254,0.320,0.680,0.573,SCHEDULE RULESET 1,No,0.0000,0,2
 People Internal Gains Nominal, RES OCCUPANTS|BUILDING UNIT 206|2_BDRM_3_3,RES OCCUPANTS SCHEDULE,2_BDRM_3_3,106.84,2.5,2.5,2.312E-002,43.254,0.320,0.680,0.573,SCHEDULE RULESET 1,No,0.0000,0,2
 People Internal Gains Nominal, RES OCCUPANTS|BUILDING UNIT 209|2_BDRM_3_4,RES OCCUPANTS SCHEDULE,2_BDRM_3_4,106.84,2.5,2.5,2.312E-002,43.254,0.320,0.680,0.573,SCHEDULE RULESET 1,No,0.0000,0,2
 People Internal Gains Nominal, RES OCCUPANTS|BUILDING UNIT 302|3_BDRM_1_3,RES OCCUPANTS SCHEDULE,3_BDRM_1_3,139.35,3.4,3.4,2.433E-002,41.108,0.320,0.680,0.573,SCHEDULE RULESET 1,No,0.0000,0,3
 People Internal Gains Nominal, RES OCCUPANTS|BUILDING UNIT 303|3_BDRM_1_4,RES OCCUPANTS SCHEDULE,3_BDRM_1_4,139.35,3.4,3.4,2.433E-002,41.108,0.320,0.680,0.573,SCHEDULE RULESET 1,No,0.0000,0,3
 People Internal Gains Nominal, RES OCCUPANTS|BUILDING UNIT 301|3_BDRM_2_2,RES OCCUPANTS SCHEDULE,3_BDRM_2_2,139.35,3.4,3.4,2.433E-002,41.108,0.320,0.680,0.573,SCHEDULE RULESET 1,No,0.0000,0,3
 People Internal Gains Nominal, BATHRM_1 BATHROOM PEOPLE,HOTELSMALL LOBBY_OCC_SCH,BATHRM_1,13.94,0.4,0.4,3.068E-002,32.598,0.300,0.700,AutoCalculate,HOTELSMALL ACTIVITY_SCH,No,3.8200E-008,0,0
 People Internal Gains Nominal, BATHRM_2 BATHROOM PEOPLE,HOTELSMALL LOBBY_OCC_SCH,BATHRM_2,13.94,0.4,0.4,3.068E-002,32.598,0.300,0.700,AutoCalculate,HOTELSMALL ACTIVITY_SCH,No,3.8200E-008,0,0
 People Internal Gains Nominal, COFFEE_SHOP COFFEE PEOPLE,RESTAURANTFASTFOOD BLDG_OCC_SCH,COFFEE_SHOP,139.35,105.0,105.0,0.753,1.327,0.300,0.700,AutoCalculate,RESTAURANTFASTFOOD ACTIVITY_SCH,No,3.8200E-008,0,105
 People Internal Gains Nominal, COMMUNITY_RM COMMUNITY PEOPLE,HOTELSMALL MEETINGROOM_OCC_SCH,COMMUNITY_RM,139.35,75.0,75.0,0.538,1.858,0.300,0.700,AutoCalculate,HOTELSMALL ACTIVITY_SCH,No,3.8200E-008,0,75
 People Internal Gains Nominal, GYM 1 GYM 2 PEOPLE,HOTELSMALL EXERCISECENTER_OCC_SCH,GYM 1,97.55,20.9,20.9,0.215,4.659,0.300,0.700,AutoCalculate,HOTELSMALL ACTIVITY_SCH,No,3.8200E-008,0,21
 People Internal Gains Nominal, OFFICE 1 OFFICE 2 PEOPLE,APARTMENTMIDRISE OCC_OFF_SCH,OFFICE 1,69.68,0.8,0.8,1.130E-002,88.479,0.300,0.700,AutoCalculate,APARTMENTMIDRISE ACTIVITY SCHEDULE,No,3.8200E-008,0,1
 People Internal Gains Nominal, LT_RETAIL_1 RETAIL PEOPLE,RETAILSTANDALONE BLDG_OCC_SCH_2010,LT_RETAIL_1,125.42,20.3,20.3,0.161,6.194,0.300,0.700,AutoCalculate,RETAILSTANDALONE ACTIVITY_SCH,No,3.8200E-008,0,20
 People Internal Gains Nominal, LT_RETAIL_2 RETAIL PEOPLE,RETAILSTANDALONE BLDG_OCC_SCH_2010,LT_RETAIL_2,102.19,16.5,16.5,0.161,6.194,0.300,0.700,AutoCalculate,RETAILSTANDALONE ACTIVITY_SCH,No,3.8200E-008,0,17
 People Internal Gains Nominal, LT_RETAIL_3 RETAIL PEOPLE,RETAILSTANDALONE BLDG_OCC_SCH_2010,LT_RETAIL_3,97.55,15.8,15.8,0.161,6.194,0.300,0.700,AutoCalculate,RETAILSTANDALONE ACTIVITY_SCH,No,3.8200E-008,0,16
 People Internal Gains Nominal, LT_RETAIL_4 RETAIL PEOPLE,RETAILSTANDALONE BLDG_OCC_SCH_2010,LT_RETAIL_4,102.19,16.5,16.5,0.161,6.194,0.300,0.700,AutoCalculate,RETAILSTANDALONE ACTIVITY_SCH,No,3.8200E-008,0,17
! <Lights Internal Gains Nominal>,Name,Schedule Name,Zone Name,Zone Floor Area {m2},# Zone Occupants,Lighting Level {W},Lights/Floor Area {W/m2},Lights per person {W/person},Fraction Return Air,Fraction Radiant,Fraction Short Wave,Fraction Convected,Fraction Replaceable,End-Use Category,Nominal Minimum Lighting Level {W},Nominal Maximum Lighting Level {W}
 Lights Internal Gains Nominal, RES LIGHTING INTERIOR|BUILDING UNIT 001 0_BDRM_1_2,RES LIGHTING INTERIOR,0_BDRM_1_2,41.81,0.6,96.817,2.316,153.678,0.000,0.600,0.200,0.200,1.000,res lighting interior|Building Unit 001 0_Bdrm_1_2,0.000,96.817
 Lights Internal Gains Nominal, RES LIGHTING INTERIOR|BUILDING UNIT 005 0_BDRM_1_3,RES LIGHTING INTERIOR,0_BDRM_1_3,41.81,0.6,96.817,2.316,153.678,0.000,0.600,0.200,0.200,1.000,res lighting interior|Building Unit 005 0_Bdrm_1_3,0.000,96.817
 Lights Internal Gains Nominal, RES LIGHTING INTERIOR|BUILDING UNIT 009 0_BDRM_1_4,RES LIGHTING INTERIOR,0_BDRM_1_4,41.81,0.6,96.817,2.316,153.678,0.000,0.600,0.200,0.200,1.000,res lighting interior|Building Unit 009 0_Bdrm_1_4,0.000,96.817
 Lights Internal Gains Nominal, RES LIGHTING INTERIOR|BUILDING UNIT 002 0_BDRM_2_2,RES LIGHTING INTERIOR,0_BDRM_2_2,41.81,0.6,96.817,2.316,153.678,0.000,0.600,0.200,0.200,1.000,res lighting interior|Building Unit 002 0_Bdrm_2_2,0.000,96.817
 Lights Internal Gains Nominal, RES LIGHTING INTERIOR|BUILDING UNIT 006 0_BDRM_2_3,RES LIGHTING INTERIOR,0_BDRM_2_3,41.81,0.6,96.817,2.316,153.678,0.000,0.600,0.200,0.200,1.000,res lighting interior|Building Unit 006 0_Bdrm_2_3,0.000,96.817
 Lights Internal Gains Nominal, RES LIGHTING INTERIOR|BUILDING UNIT 010 0_BDRM_2_4,RES LIGHTING INTERIOR,0_BDRM_2_4,41.81,0.6,96.817,2.316,153.678,0.000,0.600,0.200,0.200,1.000,res lighting interior|Building Unit 010 0_Bdrm_2_4,0.000,96.817
 Lights Internal Gains Nominal, RES LIGHTING INTERIOR|BUILDING UNIT 003 0_BDRM_3_2,RES LIGHTING INTERIOR,0_BDRM_3_2,41.81,0.6,96.817,2.316,153.678,0.000,0.600,0.200,0.200,1.000,res lighting interior|Building Unit 003 0_Bdrm_3_2,0.000,96.817
 Lights Internal Gains Nominal, RES LIGHTING INTERIOR|BUILDING UNIT 007 0_BDRM_3_3,RES LIGHTING INTERIOR,0_BDRM_3_3,41.81,0.6,96.817,2.316,153.678,0.000,0.600,0.200,0.200,1.000,res lighting interior|Building Unit 007 0_Bdrm_3_3,0.000,96.817
 Lights Internal Gains Nominal, RES LIGHTING INTERIOR|BUILDING UNIT 011 0_BDRM_3_4,RES LIGHTING INTERIOR,0_BDRM_3_4,41.81,0.6,96.817,2.316,153.678,0.000,0.600,0.200,0.200,1.000,res lighting interior|Building Unit 011 0_Bdrm_3_4,0.000,96.817
 Lights Internal Gains Nominal, RES LIGHTING INTERIOR|BUILDING UNIT 004 0_BDRM_4_2,RES LIGHTING INTERIOR,0_BDRM_4_2,41.81,0.6,96.817,2.316,153.678,0.000,0.600,0.200,0.200,1.000,res lighting interior|Building Unit 004 0_Bdrm_4_2,0.000,96.817
 Lights Internal Gains Nominal, RES LIGHTING INTERIOR|BUILDING UNIT 008 0_BDRM_4_3,RES LIGHTING INTERIOR,0_BDRM_4_3,41.81,0.6,96.817,2.316,153.678,0.000,0.600,0.200,0.200,1.000,res lighting interior|Building Unit 008 0_Bdrm_4_3,0.000,96.817
 Lights Internal Gains Nominal, RES LIGHTING INTERIOR|BUILDING UNIT 012 0_BDRM_4_4,RES LIGHTING INTERIOR,0_BDRM_4_4,41.81,0.6,96.817,2.316,153.678,0.000,0.600,0.200,0.200,1.000,res lighting interior|Building Unit 012 0_Bdrm_4_4,0.000,96.817
 Lights Internal Gains Nominal, RES LIGHTING INTERIOR|BUILDING UNIT 101 1_BDRM_1_2,RES LIGHTING INTERIOR,1_BDRM_1_2,55.74,1.6,110.438,1.981,71.250,0.000,0.600,0.200,0.200,1.000,res lighting interior|Building Unit 101 1_Bdrm_1_2,0.000,110.438
 Lights Internal Gains Nominal, RES LIGHTING INTERIOR|BUILDING UNIT 108 1_BDRM_1_3,RES LIGHTING INTERIOR,1_BDRM_1_3,55.74,1.6,110.438,1.981,71.250,0.000,0.600,0.200,0.200,1.000,res lighting interior|Building Unit 108 1_Bdrm_1_3,0.000,110.438
 Lights Internal Gains Nominal, RES LIGHTING INTERIOR|BUILDING UNIT 115 1_BDRM_1_4,RES LIGHTING INTERIOR,1_BDRM_1_4,55.74,1.6,110.438,1.981,71.250,0.000,0.600,0.200,0.200,1.000,res lighting interior|Building Unit 115 1_Bdrm_1_4,0.000,110.438
 Lights Internal Gains Nominal, RES LIGHTING INTERIOR|BUILDING UNIT 102 1_BDRM_2_2,RES LIGHTING INTERIOR,1_BDRM_2_2,55.74,1.6,110.438,1.981,71.250,0.000,0.600,0.200,0.200,1.000,res lighting interior|Building Unit 102 1_Bdrm_2_2,0.000,110.438
 Lights Internal Gains Nominal, RES LIGHTING INTERIOR|BUILDING UNIT 109 1_BDRM_2_3,RES LIGHTING INTERIOR,1_BDRM_2_3,55.74,1.6,110.438,1.981,71.250,0.000,0.600,0.200,0.200,1.000,res lighting interior|Building Unit 109 1_Bdrm_2_3,0.000,110.438
 Lights Internal Gains Nominal, RES LIGHTING INTERIOR|BUILDING UNIT 116 1_BDRM_2_4,RES LIGHTING INTERIOR,1_BDRM_2_4,55.74,1.6,110.438,1.981,71.250,0.000,0.600,0.200,0.200,1.000,res lighting interior|Building Unit 116 1_Bdrm_2_4,0.000,110.438
 Lights Internal Gains Nominal, RES LIGHTING INTERIOR|BUILDING UNIT 103 1_BDRM_3_2,RES LIGHTING INTERIOR,1_BDRM_3_2,55.74,1.6,110.438,1.981,71.250,0.000,0.600,0.200,0.200,1.000,res lighting interior|Building Unit 103 1_Bdrm_3_2,0.000,110.438
 Lights Internal Gains Nominal, RES LIGHTING INTERIOR|BUILDING UNIT 110 1_BDRM_3_3,RES LIGHTING INTERIOR,1_BDRM_3_3,55.74,1.6,110.438,1.981,71.250,0.000,0.600,0.200,0.200,1.000,res lighting interior|Building Unit 110 1_Bdrm_3_3,0.000,110.438
 Lights Internal Gains Nominal, RES LIGHTING INTERIOR|BUILDING UNIT 117 1_BDRM_3_4,RES LIGHTING INTERIOR,1_BDRM_3_4,55.74,1.6,110.438,1.981,71.250,0.000,0.600,0.200,0.200,1.000,res lighting interior|Building Unit 117 1_Bdrm_3_4,0.000,110.438
 Lights Internal Gains Nominal, RES LIGHTING INTERIOR|BUILDING UNIT 104 1_BDRM_4_2,RES LIGHTING INTERIOR,1_BDRM_4_2,69.68,1.6,124.058,1.780,80.037,0.000,0.600,0.200,0.200,1.000,res lighting interior|Building Unit 104 1_Bdrm_4_2,0.000,124.058
 Lights Internal Gains Nominal, RES LIGHTING INTERIOR|BUILDING UNIT 111 1_BDRM_4_3,RES LIGHTING INTERIOR,1_BDRM_4_3,69.68,1.6,124.058,1.780,80.037,0.000,0.600,0.200,0.200,1.000,res lighting interior|Building Unit 111 1_Bdrm_4_3,0.000,124.058
 Lights Internal Gains Nominal, RES LIGHTING INTERIOR|BUILDING UNIT 118 1_BDRM_4_4,RES LIGHTING INTERIOR,1_BDRM_4_4,69.68,1.6,124.058,1.780,80.037,0.000,0.600,0.200,0.200,1.000,res lighting interior|Building Unit 118 1_Bdrm_4_4,0.000,124.058
 Lights Internal Gains Nominal, RES LIGHTING INTERIOR|BUILDING UNIT 105 1_BDRM_5_2,RES LIGHTING INTERIOR,1_BDRM_5_2,69.68,1.6,124.058,1.780,80.037,0.000,0.600,0.200,0.200,1.000,res lighting interior|Building Unit 105 1_Bdrm_5_2,0.000,124.058
 Lights Internal Gains Nominal, RES LIGHTING INTERIOR|BUILDING UNIT 112 1_BDRM_5_3,RES LIGHTING INTERIOR,1_BDRM_5_3,69.68,1.6,124.058,1.780,80.037,0.000,0.600,0.200,0.200,1.000,res lighting interior|Building Unit 112 1_Bdrm_5_3,0.000,124.058
 Lights Internal Gains Nominal, RES LIGHTING INTERIOR|BUILDING UNIT 119 1_BDRM_5_4,RES LIGHTING INTERIOR,1_BDRM_5_4,69.68,1.6,124.058,1.780,80.037,0.000,0.600,0.200,0.200,1.000,res lighting interior|Building Unit 119 1_Bdrm_5_4,0.000,124.058
 Lights Internal Gains Nominal, RES LIGHTING INTERIOR|BUILDING UNIT 106 1_BDRM_6_2,RES LIGHTING INTERIOR,1_BDRM_6_2,55.74,1.6,110.438,1.981,71.250,0.000,0.600,0.200,0.200,1.000,res lighting interior|Building Unit 106 1_Bdrm_6_2,0.000,110.438
 Lights Internal Gains Nominal, RES LIGHTING INTERIOR|BUILDING UNIT 113 1_BDRM_6_3,RES LIGHTING INTERIOR,1_BDRM_6_3,55.74,1.6,110.438,1.981,71.250,0.000,0.600,0.200,0.200,1.000,res lighting interior|Building Unit 113 1_Bdrm_6_3,0.000,110.438
 Lights Internal Gains Nominal, RES LIGHTING INTERIOR|BUILDING UNIT 120 1_BDRM_6_4,RES LIGHTING INTERIOR,1_BDRM_6_4,55.74,1.6,110.438,1.981,71.250,0.000,0.600,0.200,0.200,1.000,res lighting interior|Building Unit 120 1_Bdrm_6_4,0.000,110.438
 Lights Internal Gains Nominal, RES LIGHTING INTERIOR|BUILDING UNIT 107 1_BDRM_7_2,RES LIGHTING INTERIOR,1_BDRM_7_2,69.68,1.6,124.058,1.780,80.037,0.000,0.600,0.200,0.200,1.000,res lighting interior|Building Unit 107 1_Bdrm_7_2,0.000,124.058
 Lights Internal Gains Nominal, RES LIGHTING INTERIOR|BUILDING UNIT 114 1_BDRM_7_3,RES LIGHTING INTERIOR,1_BDRM_7_3,69.68,1.6,124.058,1.780,80.037,0.000,0.600,0.200,0.200,1.000,res lighting interior|Building Unit 114 1_Bdrm_7_3,0.000,124.058
 Lights Internal Gains Nominal, RES LIGHTING INTERIOR|BUILDING UNIT 121 1_BDRM_7_4,RES LIGHTING INTERIOR,1_BDRM_7_4,69.68,1.6,124.058,1.780,80.037,0.000,0.600,0.200,0.200,1.000,res lighting interior|Building Unit 121 1_Bdrm_7_4,0.000,124.058
 Lights Internal Gains Nominal, RES LIGHTING INTERIOR|BUILDING UNIT 201 2_BDRM_1_2,RES LIGHTING INTERIOR,2_BDRM_1_2,102.19,2.5,155.839,1.525,63.093,0.000,0.600,0.200,0.200,1.000,res lighting interior|Building Unit 201 2_Bdrm_1_2,0.000,155.839
 Lights Internal Gains Nominal, RES LIGHTING INTERIOR|BUILDING UNIT 204 2_BDRM_1_3,RES LIGHTING INTERIOR,2_BDRM_1_3,102.19,2.5,155.839,1.525,63.093,0.000,0.600,0.200,0.200,1.000,res lighting interior|Building Unit 204 2_Bdrm_1_3,0.000,155.839
 Lights Internal Gains Nominal, RES LIGHTING INTERIOR|BUILDING UNIT 207 2_BDRM_1_4,RES LIGHTING INTERIOR,2_BDRM_1_4,102.19,2.5,155.839,1.525,63.093,0.000,0.600,0.200,0.200,1.000,res lighting interior|Building Unit 207 2_Bdrm_1_4,0.000,155.839
 Lights Internal Gains Nominal, RES LIGHTING INTERIOR|BUILDING UNIT 202 2_BDRM_2_2,RES LIGHTING INTERIOR,2_BDRM_2_2,111.48,2.5,164.919,1.479,66.769,0.000,0.600,0.200,0.200,1.000,res lighting interior|Building Unit 202 2_Bdrm_2_2,0.000,164.919
 Lights Internal Gains Nominal, RES LIGHTING INTERIOR|BUILDING UNIT 205 2_BDRM_2_3,RES LIGHTING INTERIOR,2_BDRM_2_3,111.48,2.5,164.919,1.479,66.769,0.000,0.600,0.200,0.200,1.000,res lighting interior|Building Unit 205 2_Bdrm_2_3,0.000,164.919
 Lights Internal Gains Nominal, RES LIGHTING INTERIOR|BUILDING UNIT 208 2_BDRM_2_4,RES LIGHTING INTERIOR,2_BDRM_2_4,111.48,2.5,164.919,1.479,66.769,0.000,0.600,0.200,0.200,1.000,res lighting interior|Building Unit 208 2_Bdrm_2_4,0.000,164.919
 Lights Internal Gains Nominal, RES LIGHTING INTERIOR|BUILDING UNIT 203 2_BDRM_3_2,RES LIGHTING INTERIOR,2_BDRM_3_2,106.84,2.5,160.379,1.501,64.931,0.000,0.600,0.200,0.200,1.000,res lighting interior|Building Unit 203 2_Bdrm_3_2,0.000,160.379
 Lights Internal Gains Nominal, RES LIGHTING INTERIOR|BUILDING UNIT 206 2_BDRM_3_3,RES LIGHTING INTERIOR,2_BDRM_3_3,106.84,2.5,160.379,1.501,64.931,0.000,0.600,0.200,0.200,1.000,res lighting interior|Building Unit 206 2_Bdrm_3_3,0.000,160.379
 Lights Internal Gains Nominal, RES LIGHTING INTERIOR|BUILDING UNIT 209 2_BDRM_3_4,RES LIGHTING INTERIOR,2_BDRM_3_4,106.84,2.5,160.379,1.501,64.931,0.000,0.600,0.200,0.200,1.000,res lighting interior|Building Unit 209 2_Bdrm_3_4,0.000,160.379
 Lights Internal Gains Nominal, RES LIGHTING INTERIOR|BUILDING UNIT 302 3_BDRM_1_3,RES LIGHTING INTERIOR,3_BDRM_1_3,139.35,3.4,192.160,1.379,56.684,0.000,0.600,0.200,0.200,1.000,res lighting interior|Building Unit 302 3_Bdrm_1_3,0.000,192.160
 Lights Internal Gains Nominal, RES LIGHTING INTERIOR|BUILDING UNIT 303 3_BDRM_1_4,RES LIGHTING INTERIOR,3_BDRM_1_4,139.35,3.4,192.160,1.379,56.684,0.000,0.600,0.200,0.200,1.000,res lighting interior|Building Unit 303 3_Bdrm_1_4,0.000,192.160
 Lights Internal Gains Nominal, RES LIGHTING INTERIOR|BUILDING UNIT 301 3_BDRM_2_2,RES LIGHTING INTERIOR,3_BDRM_2_2,139.35,3.4,192.160,1.379,56.684,0.000,0.600,0.200,0.200,1.000,res lighting interior|Building Unit 301 3_Bdrm_2_2,0.000,192.160
 Lights Internal Gains Nominal, BATHRM_1 BATHROOM LIGHTS,HOTELSMALL BLDG_LIGHT_RESTROOM_SCH,BATHRM_1,13.94,0.4,147.000,10.549,343.860,0.000,0.700,0.200,0.100,1.000,General,97.020,97.020
 Lights Internal Gains Nominal, BATHRM_2 BATHROOM LIGHTS,HOTELSMALL BLDG_LIGHT_RESTROOM_SCH,BATHRM_2,13.94,0.4,147.000,10.549,343.860,0.000,0.700,0.200,0.100,1.000,General,97.020,97.020
 Lights Internal Gains Nominal, COFFEE_SHOP COFFEE LIGHTS,RESTAURANTFASTFOOD BLDG_LIGHT_DINING_SCH_2013,COFFEE_SHOP,139.35,105.0,975.000,6.997,9.286,0.000,0.370,0.200,0.430,1.000,General,0.000,975.000
 Lights Internal Gains Nominal, COMMUNITY_RM COMMUNITY LIGHTS,HOTELSMALL BLDG_LIGHT_MEETINGROOM_SCH,COMMUNITY_RM,139.35,75.0,1845.000,13.240,24.600,0.000,0.700,0.200,0.100,1.000,General,0.000,1845.000
 Lights Internal Gains Nominal, CORRIDOR CORRIDOR 5 LIGHTS,APARTMENTMIDRISE LTG_COR_SCH_2013,CORRIDOR,92.90,0.0,792.000,8.525,N/A,0.000,0.600,0.200,0.200,0.000,General,420.900,420.900
 Lights Internal Gains Nominal, CORRIDOR_2 CORRIDOR 5 LIGHTS,APARTMENTMIDRISE LTG_COR_SCH_2013,CORRIDOR_2,74.32,0.0,633.600,8.525,N/A,0.000,0.600,0.200,0.200,0.000,General,336.720,336.720
 Lights Internal Gains Nominal, CORRIDOR_3 CORRIDOR 5 LIGHTS,APARTMENTMIDRISE LTG_COR_SCH_2013,CORRIDOR_3,74.32,0.0,633.600,8.525,N/A,0.000,0.600,0.200,0.200,0.000,General,336.720,336.720
 Lights Internal Gains Nominal, CORRIDOR_4 CORRIDOR 5 LIGHTS,APARTMENTMIDRISE LTG_COR_SCH_2013,CORRIDOR_4,74.32,0.0,633.600,8.525,N/A,0.000,0.600,0.200,0.200,0.000,General,336.720,336.720
 Lights Internal Gains Nominal, GARBAGE 1 GARBAGE 2 LIGHTS,HOTELSMALL BLDG_LIGHT_STORAGE_SCH,GARBAGE 1,41.81,0.0,283.500,6.781,N/A,0.000,0.700,0.200,0.100,1.000,General,0.000,283.500
 Lights Internal Gains Nominal, GYM 1 GYM 2 LIGHTS,HOTELSMALL BLDG_LIGHT_EXERCENTER_SCH,GYM 1,97.55,20.9,907.200,9.300,43.330,0.000,0.700,0.200,0.100,1.000,General,0.000,907.200
 Lights Internal Gains Nominal, LOBBY_ENTRY LOBBY LIGHTS,RETAILSTANDALONE BLDG_LIGHT_ENTRY_SCH_2013,LOBBY_ENTRY,55.74,0.0,540.000,9.688,N/A,0.000,0.700,0.200,0.100,1.000,General,0.000,540.000
 Lights Internal Gains Nominal, MAIL_SHIPPING MAIL LIGHTS,HOTELSMALL BLDG_LIGHT_STORAGE_SCH,MAIL_SHIPPING,41.81,0.0,283.500,6.781,N/A,0.000,0.700,0.200,0.100,1.000,General,0.000,283.500
 Lights Internal Gains Nominal, OFFICE 1 OFFICE 2 LIGHTS,APARTMENTMIDRISE LTG_OFF_SCH_2013,OFFICE 1,69.68,0.8,832.500,11.948,1057.143,0.000,0.600,0.200,0.200,0.000,General,0.000,832.500
 Lights Internal Gains Nominal, LT_RETAIL_1 RETAIL LIGHTS,RETAILSTANDALONE BLDG_LIGHT_SCH_2013,LT_RETAIL_1,125.42,20.3,1944.000,15.500,96.000,0.000,0.700,0.200,0.100,1.000,General,0.000,1944.000
 Lights Internal Gains Nominal, LT_RETAIL_2 RETAIL LIGHTS,RETAILSTANDALONE BLDG_LIGHT_SCH_2013,LT_RETAIL_2,102.19,16.5,1584.000,15.500,96.000,0.000,0.700,0.200,0.100,1.000,General,0.000,1584.000
 Lights Internal Gains Nominal, LT_RETAIL_3 RETAIL LIGHTS,RETAILSTANDALONE BLDG_LIGHT_SCH_2013,LT_RETAIL_3,97.55,15.8,1512.000,15.500,96.000,0.000,0.700,0.200,0.100,1.000,General,0.000,1512.000
 Lights Internal Gains Nominal, LT_RETAIL_4 RETAIL LIGHTS,RETAILSTANDALONE BLDG_LIGHT_SCH_2013,LT_RETAIL_4,102.19,16.5,1584.000,15.500,96.000,0.000,0.700,0.200,0.100,1.000,General,0.000,1584.000
 Lights Internal Gains Nominal, STAIR_1 STAIR LIGHTS,HOTELSMALL BLDG_LIGHT_STAIR_SCH,STAIR_1,27.87,0.0,207.000,7.427,N/A,0.000,0.700,0.200,0.100,1.000,General,113.850,113.850
 Lights Internal Gains Nominal, STAIR_2 STAIR LIGHTS,HOTELSMALL BLDG_LIGHT_STAIR_SCH,STAIR_2,27.87,0.0,207.000,7.427,N/A,0.000,0.700,0.200,0.100,1.000,General,113.850,113.850
 Lights Internal Gains Nominal, STAIRWELL_1_2 STAIR LIGHTS,HOTELSMALL BLDG_LIGHT_STAIR_SCH,STAIRWELL_1_2,27.87,0.0,207.000,7.427,N/A,0.000,0.700,0.200,0.100,1.000,General,113.850,113.850
 Lights Internal Gains Nominal, STAIRWELL_1_3 STAIR LIGHTS,HOTELSMALL BLDG_LIGHT_STAIR_SCH,STAIRWELL_1_3,27.87,0.0,207.000,7.427,N/A,0.000,0.700,0.200,0.100,1.000,General,113.850,113.850
 Lights Internal Gains Nominal, STAIRWELL_1_4 STAIR LIGHTS,HOTELSMALL BLDG_LIGHT_STAIR_SCH,STAIRWELL_1_4,27.87,0.0,207.000,7.427,N/A,0.000,0.700,0.200,0.100,1.000,General,113.850,113.850
 Lights Internal Gains Nominal, STAIRWELL_2_2 STAIR LIGHTS,HOTELSMALL BLDG_LIGHT_STAIR_SCH,STAIRWELL_2_2,27.87,0.0,207.000,7.427,N/A,0.000,0.700,0.200,0.100,1.000,General,113.850,113.850
 Lights Internal Gains Nominal, STAIRWELL_2_3 STAIR LIGHTS,HOTELSMALL BLDG_LIGHT_STAIR_SCH,STAIRWELL_2_3,27.87,0.0,207.000,7.427,N/A,0.000,0.700,0.200,0.100,1.000,General,113.850,113.850
 Lights Internal Gains Nominal, STAIRWELL_2_4 STAIR LIGHTS,HOTELSMALL BLDG_LIGHT_STAIR_SCH,STAIRWELL_2_4,27.87,0.0,207.000,7.427,N/A,0.000,0.700,0.200,0.100,1.000,General,113.850,113.850
! <ElectricEquipment Internal Gains Nominal>,Name,Schedule Name,Zone Name,Zone Floor Area {m2},# Zone Occupants,Equipment Level {W},Equipment/Floor Area {W/m2},Equipment per person {W/person},Fraction Latent,Fraction Radiant,Fraction Lost,Fraction Convected,End-Use SubCategory,Nominal Minimum Equipment Level {W},Nominal Maximum Equipment Level {W}
 ElectricEquipment Internal Gains Nominal, RES CD ELECTRIC|BUILDING UNIT 001,RES CD ELECTRIC|BUILDING UNIT 001 SCHEDULE,0_BDRM_1_2,41.81,0.6,40138.115,960.096,63711.293,5.000E-002,9.000E-002,0.800,6.000E-002,res cd electric|Building Unit 001,0.000,902.069
 ElectricEquipment Internal Gains Nominal, RES CW|BUILDING UNIT 001,RES CW SCHEDULE,0_BDRM_1_2,41.81,0.6,3593.642,85.959,5704.193,0.000,0.480,0.200,0.320,res cw|Building Unit 001,0.000,80.764
 ElectricEquipment Internal Gains Nominal, RES DW|BUILDING UNIT 001,RES DW SCHEDULE,0_BDRM_1_2,41.81,0.6,5367.769,128.396,8520.268,0.150,0.360,0.250,0.240,res dw|Building Unit 001,0.000,360.010
 ElectricEquipment Internal Gains Nominal, RES MISC PLUG LOADS|BUILDING UNIT 001|0_BDRM_1_2,RES MISC PLUG LOADS SCHEDULE,0_BDRM_1_2,41.81,0.6,225.335,5.390,357.675,2.100E-002,0.558,4.900E-002,0.372,res misc plug loads|Building Unit 001,0.000,225.335
 ElectricEquipment Internal Gains Nominal, RES RANGE ELECTRIC|BUILDING UNIT 001,RES RANGE ELECTRIC|FALSE SCHEDULE,0_BDRM_1_2,41.81,0.6,105.925,2.534,168.135,0.300,0.240,0.300,0.160,res range electric|Building Unit 001,0.000,105.925
 ElectricEquipment Internal Gains Nominal, RES REFRIG|BUILDING UNIT 001,RES REFRIG SCHEDULE,0_BDRM_1_2,41.81,0.6,52.191,1.248,82.843,0.000,0.000,0.000,1.000,res refrig|Building Unit 001,0.000,52.191
 ElectricEquipment Internal Gains Nominal, RES CD ELECTRIC|BUILDING UNIT 005,RES CD ELECTRIC|BUILDING UNIT 001 SCHEDULE,0_BDRM_1_3,41.81,0.6,40138.115,960.096,63711.293,5.000E-002,9.000E-002,0.800,6.000E-002,res cd electric|Building Unit 005,0.000,902.069
 ElectricEquipment Internal Gains Nominal, RES CW|BUILDING UNIT 005,RES CW SCHEDULE 4,0_BDRM_1_3,41.81,0.6,3593.642,85.959,5704.193,0.000,0.480,0.200,0.320,res cw|Building Unit 005,0.000,80.764
 ElectricEquipment Internal Gains Nominal, RES DW|BUILDING UNIT 005,RES DW SCHEDULE 4,0_BDRM_1_3,41.81,0.6,5367.769,128.396,8520.268,0.150,0.360,0.250,0.240,res dw|Building Unit 005,0.000,360.010
 ElectricEquipment Internal Gains Nominal, RES MISC PLUG LOADS|BUILDING UNIT 005|0_BDRM_1_3,RES MISC PLUG LOADS SCHEDULE,0_BDRM_1_3,41.81,0.6,225.335,5.390,357.675,2.100E-002,0.558,4.900E-002,0.372,res misc plug loads|Building Unit 005,0.000,225.335
 ElectricEquipment Internal Gains Nominal, RES RANGE ELECTRIC|BUILDING UNIT 005,RES RANGE ELECTRIC|FALSE SCHEDULE,0_BDRM_1_3,41.81,0.6,105.925,2.534,168.135,0.300,0.240,0.300,0.160,res range electric|Building Unit 005,0.000,105.925
 ElectricEquipment Internal Gains Nominal, RES REFRIG|BUILDING UNIT 005,RES REFRIG SCHEDULE,0_BDRM_1_3,41.81,0.6,52.191,1.248,82.843,0.000,0.000,0.000,1.000,res refrig|Building Unit 005,0.000,52.191
 ElectricEquipment Internal Gains Nominal, RES CD ELECTRIC|BUILDING UNIT 009,RES CD ELECTRIC|BUILDING UNIT 001 SCHEDULE,0_BDRM_1_4,41.81,0.6,40138.115,960.096,63711.293,5.000E-002,9.000E-002,0.800,6.000E-002,res cd electric|Building Unit 009,0.000,902.069
 ElectricEquipment Internal Gains Nominal, RES CW|BUILDING UNIT 009,RES CW SCHEDULE 8,0_BDRM_1_4,41.81,0.6,3593.642,85.959,5704.193,0.000,0.480,0.200,0.320,res cw|Building Unit 009,0.000,80.764
 ElectricEquipment Internal Gains Nominal, RES DW|BUILDING UNIT 009,RES DW SCHEDULE 8,0_BDRM_1_4,41.81,0.6,5367.769,128.396,8520.268,0.150,0.360,0.250,0.240,res dw|Building Unit 009,0.000,360.010
 ElectricEquipment Internal Gains Nominal, RES MISC PLUG LOADS|BUILDING UNIT 009|0_BDRM_1_4,RES MISC PLUG LOADS SCHEDULE,0_BDRM_1_4,41.81,0.6,225.335,5.390,357.675,2.100E-002,0.558,4.900E-002,0.372,res misc plug loads|Building Unit 009,0.000,225.335
 ElectricEquipment Internal Gains Nominal, RES RANGE ELECTRIC|BUILDING UNIT 009,RES RANGE ELECTRIC|FALSE SCHEDULE,0_BDRM_1_4,41.81,0.6,105.925,2.534,168.135,0.300,0.240,0.300,0.160,res range electric|Building Unit 009,0.000,105.925
 ElectricEquipment Internal Gains Nominal, RES REFRIG|BUILDING UNIT 009,RES REFRIG SCHEDULE,0_BDRM_1_4,41.81,0.6,52.191,1.248,82.843,0.000,0.000,0.000,1.000,res refrig|Building Unit 009,0.000,52.191
 ElectricEquipment Internal Gains Nominal, RES CD ELECTRIC|BUILDING UNIT 002,RES CD ELECTRIC|BUILDING UNIT 001 SCHEDULE,0_BDRM_2_2,41.81,0.6,40138.115,960.096,63711.293,5.000E-002,9.000E-002,0.800,6.000E-002,res cd electric|Building Unit 002,0.000,902.069
 ElectricEquipment Internal Gains Nominal, RES CW|BUILDING UNIT 002,RES CW SCHEDULE 1,0_BDRM_2_2,41.81,0.6,3593.642,85.959,5704.193,0.000,0.480,0.200,0.320,res cw|Building Unit 002,0.000,80.764
 ElectricEquipment Internal Gains Nominal, RES DW|BUILDING UNIT 002,RES DW SCHEDULE 1,0_BDRM_2_2,41.81,0.6,5367.769,128.396,8520.268,0.150,0.360,0.250,0.240,res dw|Building Unit 002,0.000,360.010
 ElectricEquipment Internal Gains Nominal, RES MISC PLUG LOADS|BUILDING UNIT 002|0_BDRM_2_2,RES MISC PLUG LOADS SCHEDULE,0_BDRM_2_2,41.81,0.6,225.335,5.390,357.675,2.100E-002,0.558,4.900E-002,0.372,res misc plug loads|Building Unit 002,0.000,225.335
 ElectricEquipment Internal Gains Nominal, RES RANGE ELECTRIC|BUILDING UNIT 002,RES RANGE ELECTRIC|FALSE SCHEDULE,0_BDRM_2_2,41.81,0.6,105.925,2.534,168.135,0.300,0.240,0.300,0.160,res range electric|Building Unit 002,0.000,105.925
 ElectricEquipment Internal Gains Nominal, RES REFRIG|BUILDING UNIT 002,RES REFRIG SCHEDULE,0_BDRM_2_2,41.81,0.6,52.191,1.248,82.843,0.000,0.000,0.000,1.000,res refrig|Building Unit 002,0.000,52.191
 ElectricEquipment Internal Gains Nominal, RES CD ELECTRIC|BUILDING UNIT 006,RES CD ELECTRIC|BUILDING UNIT 001 SCHEDULE,0_BDRM_2_3,41.81,0.6,40138.115,960.096,63711.293,5.000E-002,9.000E-002,0.800,6.000E-002,res cd electric|Building Unit 006,0.000,902.069
 ElectricEquipment Internal Gains Nominal, RES CW|BUILDING UNIT 006,RES CW SCHEDULE 5,0_BDRM_2_3,41.81,0.6,3593.642,85.959,5704.193,0.000,0.480,0.200,0.320,res cw|Building Unit 006,0.000,80.764
 ElectricEquipment Internal Gains Nominal, RES DW|BUILDING UNIT 006,RES DW SCHEDULE 5,0_BDRM_2_3,41.81,0.6,5367.769,128.396,8520.268,0.150,0.360,0.250,0.240,res dw|Building Unit 006,0.000,360.010
 ElectricEquipment Internal Gains Nominal, RES MISC PLUG LOADS|BUILDING UNIT 006|0_BDRM_2_3,RES MISC PLUG LOADS SCHEDULE,0_BDRM_2_3,41.81,0.6,225.335,5.390,357.675,2.100E-002,0.558,4.900E-002,0.372,res misc plug loads|Building Unit 006,0.000,225.335
 ElectricEquipment Internal Gains Nominal, RES RANGE ELECTRIC|BUILDING UNIT 006,RES RANGE ELECTRIC|FALSE SCHEDULE,0_BDRM_2_3,41.81,0.6,105.925,2.534,168.135,0.300,0.240,0.300,0.160,res range electric|Building Unit 006,0.000,105.925
 ElectricEquipment Internal Gains Nominal, RES REFRIG|BUILDING UNIT 006,RES REFRIG SCHEDULE,0_BDRM_2_3,41.81,0.6,52.191,1.248,82.843,0.000,0.000,0.000,1.000,res refrig|Building Unit 006,0.000,52.191
 ElectricEquipment Internal Gains Nominal, RES CD ELECTRIC|BUILDING UNIT 010,RES CD ELECTRIC|BUILDING UNIT 001 SCHEDULE,0_BDRM_2_4,41.81,0.6,40138.115,960.096,63711.293,5.000E-002,9.000E-002,0.800,6.000E-002,res cd electric|Building Unit 010,0.000,902.069
 ElectricEquipment Internal Gains Nominal, RES CW|BUILDING UNIT 010,RES CW SCHEDULE 9,0_BDRM_2_4,41.81,0.6,3593.642,85.959,5704.193,0.000,0.480,0.200,0.320,res cw|Building Unit 010,0.000,80.764
 ElectricEquipment Internal Gains Nominal, RES DW|BUILDING UNIT 010,RES DW SCHEDULE 9,0_BDRM_2_4,41.81,0.6,5367.769,128.396,8520.268,0.150,0.360,0.250,0.240,res dw|Building Unit 010,0.000,360.010
 ElectricEquipment Internal Gains Nominal, RES MISC PLUG LOADS|BUILDING UNIT 010|0_BDRM_2_4,RES MISC PLUG LOADS SCHEDULE,0_BDRM_2_4,41.81,0.6,225.335,5.390,357.675,2.100E-002,0.558,4.900E-002,0.372,res misc plug loads|Building Unit 010,0.000,225.335
 ElectricEquipment Internal Gains Nominal, RES RANGE ELECTRIC|BUILDING UNIT 010,RES RANGE ELECTRIC|FALSE SCHEDULE,0_BDRM_2_4,41.81,0.6,105.925,2.534,168.135,0.300,0.240,0.300,0.160,res range electric|Building Unit 010,0.000,105.925
 ElectricEquipment Internal Gains Nominal, RES REFRIG|BUILDING UNIT 010,RES REFRIG SCHEDULE,0_BDRM_2_4,41.81,0.6,52.191,1.248,82.843,0.000,0.000,0.000,1.000,res refrig|Building Unit 010,0.000,52.191
 ElectricEquipment Internal Gains Nominal, RES CD ELECTRIC|BUILDING UNIT 003,RES CD ELECTRIC|BUILDING UNIT 001 SCHEDULE,0_BDRM_3_2,41.81,0.6,40138.115,960.096,63711.293,5.000E-002,9.000E-002,0.800,6.000E-002,res cd electric|Building Unit 003,0.000,902.069
 ElectricEquipment Internal Gains Nominal, RES CW|BUILDING UNIT 003,RES CW SCHEDULE 2,0_BDRM_3_2,41.81,0.6,3593.642,85.959,5704.193,0.000,0.480,0.200,0.320,res cw|Building Unit 003,0.000,80.764
 ElectricEquipment Internal Gains Nominal, RES DW|BUILDING UNIT 003,RES DW SCHEDULE 2,0_BDRM_3_2,41.81,0.6,5367.769,128.396,8520.268,0.150,0.360,0.250,0.240,res dw|Building Unit 003,0.000,360.010
 ElectricEquipment Internal Gains Nominal, RES MISC PLUG LOADS|BUILDING UNIT 003|0_BDRM_3_2,RES MISC PLUG LOADS SCHEDULE,0_BDRM_3_2,41.81,0.6,225.335,5.390,357.675,2.100E-002,0.558,4.900E-002,0.372,res misc plug loads|Building Unit 003,0.000,225.335
 ElectricEquipment Internal Gains Nominal, RES RANGE ELECTRIC|BUILDING UNIT 003,RES RANGE ELECTRIC|FALSE SCHEDULE,0_BDRM_3_2,41.81,0.6,105.925,2.534,168.135,0.300,0.240,0.300,0.160,res range electric|Building Unit 003,0.000,105.925
 ElectricEquipment Internal Gains Nominal, RES REFRIG|BUILDING UNIT 003,RES REFRIG SCHEDULE,0_BDRM_3_2,41.81,0.6,52.191,1.248,82.843,0.000,0.000,0.000,1.000,res refrig|Building Unit 003,0.000,52.191
 ElectricEquipment Internal Gains Nominal, RES CD ELECTRIC|BUILDING UNIT 007,RES CD ELECTRIC|BUILDING UNIT 001 SCHEDULE,0_BDRM_3_3,41.81,0.6,40138.115,960.096,63711.293,5.000E-002,9.000E-002,0.800,6.000E-002,res cd electric|Building Unit 007,0.000,902.069
 ElectricEquipment Internal Gains Nominal, RES CW|BUILDING UNIT 007,RES CW SCHEDULE 6,0_BDRM_3_3,41.81,0.6,3593.642,85.959,5704.193,0.000,0.480,0.200,0.320,res cw|Building Unit 007,0.000,80.764
 ElectricEquipment Internal Gains Nominal, RES DW|BUILDING UNIT 007,RES DW SCHEDULE 6,0_BDRM_3_3,41.81,0.6,5367.769,128.396,8520.268,0.150,0.360,0.250,0.240,res dw|Building Unit 007,0.000,360.010
 ElectricEquipment Internal Gains Nominal, RES MISC PLUG LOADS|BUILDING UNIT 007|0_BDRM_3_3,RES MISC PLUG LOADS SCHEDULE,0_BDRM_3_3,41.81,0.6,225.335,5.390,357.675,2.100E-002,0.558,4.900E-002,0.372,res misc plug loads|Building Unit 007,0.000,225.335
 ElectricEquipment Internal Gains Nominal, RES RANGE ELECTRIC|BUILDING UNIT 007,RES RANGE ELECTRIC|FALSE SCHEDULE,0_BDRM_3_3,41.81,0.6,105.925,2.534,168.135,0.300,0.240,0.300,0.160,res range electric|Building Unit 007,0.000,105.925
 ElectricEquipment Internal Gains Nominal, RES REFRIG|BUILDING UNIT 007,RES REFRIG SCHEDULE,0_BDRM_3_3,41.81,0.6,52.191,1.248,82.843,0.000,0.000,0.000,1.000,res refrig|Building Unit 007,0.000,52.191
 ElectricEquipment Internal Gains Nominal, RES CD ELECTRIC|BUILDING UNIT 011,RES CD ELECTRIC|BUILDING UNIT 001 SCHEDULE,0_BDRM_3_4,41.81,0.6,40138.115,960.096,63711.293,5.000E-002,9.000E-002,0.800,6.000E-002,res cd electric|Building Unit 011,0.000,902.069
 ElectricEquipment Internal Gains Nominal, RES CW|BUILDING UNIT 011,RES CW SCHEDULE 10,0_BDRM_3_4,41.81,0.6,3593.642,85.959,5704.193,0.000,0.480,0.200,0.320,res cw|Building Unit 011,0.000,80.764
 ElectricEquipment Internal Gains Nominal, RES DW|BUILDING UNIT 011,RES DW SCHEDULE 10,0_BDRM_3_4,41.81,0.6,5367.769,128.396,8520.268,0.150,0.360,0.250,0.240,res dw|Building Unit 011,0.000,360.010
 ElectricEquipment Internal Gains Nominal, RES MISC PLUG LOADS|BUILDING UNIT 011|0_BDRM_3_4,RES MISC PLUG LOADS SCHEDULE,0_BDRM_3_4,41.81,0.6,225.335,5.390,357.675,2.100E-002,0.558,4.900E-002,0.372,res misc plug loads|Building Unit 011,0.000,225.335
 ElectricEquipment Internal Gains Nominal, RES RANGE ELECTRIC|BUILDING UNIT 011,RES RANGE ELECTRIC|FALSE SCHEDULE,0_BDRM_3_4,41.81,0.6,105.925,2.534,168.135,0.300,0.240,0.300,0.160,res range electric|Building Unit 011,0.000,105.925
 ElectricEquipment Internal Gains Nominal, RES REFRIG|BUILDING UNIT 011,RES REFRIG SCHEDULE,0_BDRM_3_4,41.81,0.6,52.191,1.248,82.843,0.000,0.000,0.000,1.000,res refrig|Building Unit 011,0.000,52.191
 ElectricEquipment Internal Gains Nominal, RES CD ELECTRIC|BUILDING UNIT 004,RES CD ELECTRIC|BUILDING UNIT 001 SCHEDULE,0_BDRM_4_2,41.81,0.6,40138.115,960.096,63711.293,5.000E-002,9.000E-002,0.800,6.000E-002,res cd electric|Building Unit 004,0.000,902.069
 ElectricEquipment Internal Gains Nominal, RES CW|BUILDING UNIT 004,RES CW SCHEDULE 3,0_BDRM_4_2,41.81,0.6,3593.642,85.959,5704.193,0.000,0.480,0.200,0.320,res cw|Building Unit 004,0.000,80.764
 ElectricEquipment Internal Gains Nominal, RES DW|BUILDING UNIT 004,RES DW SCHEDULE 3,0_BDRM_4_2,41.81,0.6,5367.769,128.396,8520.268,0.150,0.360,0.250,0.240,res dw|Building Unit 004,0.000,360.010
 ElectricEquipment Internal Gains Nominal, RES MISC PLUG LOADS|BUILDING UNIT 004|0_BDRM_4_2,RES MISC PLUG LOADS SCHEDULE,0_BDRM_4_2,41.81,0.6,225.335,5.390,357.675,2.100E-002,0.558,4.900E-002,0.372,res misc plug loads|Building Unit 004,0.000,225.335
 ElectricEquipment Internal Gains Nominal, RES RANGE ELECTRIC|BUILDING UNIT 004,RES RANGE ELECTRIC|FALSE SCHEDULE,0_BDRM_4_2,41.81,0.6,105.925,2.534,168.135,0.300,0.240,0.300,0.160,res range electric|Building Unit 004,0.000,105.925
 ElectricEquipment Internal Gains Nominal, RES REFRIG|BUILDING UNIT 004,RES REFRIG SCHEDULE,0_BDRM_4_2,41.81,0.6,52.191,1.248,82.843,0.000,0.000,0.000,1.000,res refrig|Building Unit 004,0.000,52.191
 ElectricEquipment Internal Gains Nominal, RES CD ELECTRIC|BUILDING UNIT 008,RES CD ELECTRIC|BUILDING UNIT 001 SCHEDULE,0_BDRM_4_3,41.81,0.6,40138.115,960.096,63711.293,5.000E-002,9.000E-002,0.800,6.000E-002,res cd electric|Building Unit 008,0.000,902.069
 ElectricEquipment Internal Gains Nominal, RES CW|BUILDING UNIT 008,RES CW SCHEDULE 7,0_BDRM_4_3,41.81,0.6,3593.642,85.959,5704.193,0.000,0.480,0.200,0.320,res cw|Building Unit 008,0.000,80.764
 ElectricEquipment Internal Gains Nominal, RES DW|BUILDING UNIT 008,RES DW SCHEDULE 7,0_BDRM_4_3,41.81,0.6,5367.769,128.396,8520.268,0.150,0.360,0.250,0.240,res dw|Building Unit 008,0.000,360.010
 ElectricEquipment Internal Gains Nominal, RES MISC PLUG LOADS|BUILDING UNIT 008|0_BDRM_4_3,RES MISC PLUG LOADS SCHEDULE,0_BDRM_4_3,41.81,0.6,225.335,5.390,357.675,2.100E-002,0.558,4.900E-002,0.372,res misc plug loads|Building Unit 008,0.000,225.335
 ElectricEquipment Internal Gains Nominal, RES RANGE ELECTRIC|BUILDING UNIT 008,RES RANGE ELECTRIC|FALSE SCHEDULE,0_BDRM_4_3,41.81,0.6,105.925,2.534,168.135,0.300,0.240,0.300,0.160,res range electric|Building Unit 008,0.000,105.925
 ElectricEquipment Internal Gains Nominal, RES REFRIG|BUILDING UNIT 008,RES REFRIG SCHEDULE,0_BDRM_4_3,41.81,0.6,52.191,1.248,82.843,0.000,0.000,0.000,1.000,res refrig|Building Unit 008,0.000,52.191
 ElectricEquipment Internal Gains Nominal, RES CD ELECTRIC|BUILDING UNIT 012,RES CD ELECTRIC|BUILDING UNIT 001 SCHEDULE,0_BDRM_4_4,41.81,0.6,40138.115,960.096,63711.293,5.000E-002,9.000E-002,0.800,6.000E-002,res cd electric|Building Unit 012,0.000,902.069
 ElectricEquipment Internal Gains Nominal, RES CW|BUILDING UNIT 012,RES CW SCHEDULE 11,0_BDRM_4_4,41.81,0.6,3593.642,85.959,5704.193,0.000,0.480,0.200,0.320,res cw|Building Unit 012,0.000,80.764
 ElectricEquipment Internal Gains Nominal, RES DW|BUILDING UNIT 012,RES DW SCHEDULE 11,0_BDRM_4_4,41.81,0.6,5367.769,128.396,8520.268,0.150,0.360,0.250,0.240,res dw|Building Unit 012,0.000,360.010
 ElectricEquipment Internal Gains Nominal, RES MISC PLUG LOADS|BUILDING UNIT 012|0_BDRM_4_4,RES MISC PLUG LOADS SCHEDULE,0_BDRM_4_4,41.81,0.6,225.335,5.390,357.675,2.100E-002,0.558,4.900E-002,0.372,res misc plug loads|Building Unit 012,0.000,225.335
 ElectricEquipment Internal Gains Nominal, RES RANGE ELECTRIC|BUILDING UNIT 012,RES RANGE ELECTRIC|FALSE SCHEDULE,0_BDRM_4_4,41.81,0.6,105.925,2.534,168.135,0.300,0.240,0.300,0.160,res range electric|Building Unit 012,0.000,105.925
 ElectricEquipment Internal Gains Nominal, RES REFRIG|BUILDING UNIT 012,RES REFRIG SCHEDULE,0_BDRM_4_4,41.81,0.6,52.191,1.248,82.843,0.000,0.000,0.000,1.000,res refrig|Building Unit 012,0.000,52.191
 ElectricEquipment Internal Gains Nominal, RES CD ELECTRIC|BUILDING UNIT 101,RES CD ELECTRIC|BUILDING UNIT 001 SCHEDULE,1_BDRM_1_2,55.74,1.6,53517.486,960.096,34527.410,5.000E-002,9.000E-002,0.800,6.000E-002,res cd electric|Building Unit 101,0.000,1202.759
 ElectricEquipment Internal Gains Nominal, RES CW|BUILDING UNIT 101,RES CW SCHEDULE 12,1_BDRM_1_2,55.74,1.6,4791.523,85.959,3091.305,0.000,0.480,0.200,0.320,res cw|Building Unit 101,0.000,107.685
 ElectricEquipment Internal Gains Nominal, RES DW|BUILDING UNIT 101,RES DW SCHEDULE 12,1_BDRM_1_2,55.74,1.6,7157.025,128.396,4617.435,0.150,0.360,0.250,0.240,res dw|Building Unit 101,0.000,480.014
 ElectricEquipment Internal Gains Nominal, RES MISC PLUG LOADS|BUILDING UNIT 101|1_BDRM_1_2,RES MISC PLUG LOADS SCHEDULE,1_BDRM_1_2,55.74,1.6,265.888,4.770,171.541,2.100E-002,0.558,4.900E-002,0.372,res misc plug loads|Building Unit 101,0.000,265.888
 ElectricEquipment Internal Gains Nominal, RES RANGE ELECTRIC|BUILDING UNIT 101,RES RANGE ELECTRIC|FALSE SCHEDULE,1_BDRM_1_2,55.74,1.6,141.405,2.537,91.229,0.300,0.240,0.300,0.160,res range electric|Building Unit 101,0.000,141.405
 ElectricEquipment Internal Gains Nominal, RES REFRIG|BUILDING UNIT 101,RES REFRIG SCHEDULE,1_BDRM_1_2,55.74,1.6,52.191,0.936,33.672,0.000,0.000,0.000,1.000,res refrig|Building Unit 101,0.000,52.191
 ElectricEquipment Internal Gains Nominal, RES CD ELECTRIC|BUILDING UNIT 108,RES CD ELECTRIC|BUILDING UNIT 001 SCHEDULE,1_BDRM_1_3,55.74,1.6,53517.486,960.096,34527.410,5.000E-002,9.000E-002,0.800,6.000E-002,res cd electric|Building Unit 108,0.000,1202.759
 ElectricEquipment Internal Gains Nominal, RES CW|BUILDING UNIT 108,RES CW SCHEDULE 19,1_BDRM_1_3,55.74,1.6,4791.523,85.959,3091.305,0.000,0.480,0.200,0.320,res cw|Building Unit 108,0.000,107.685
 ElectricEquipment Internal Gains Nominal, RES DW|BUILDING UNIT 108,RES DW SCHEDULE 19,1_BDRM_1_3,55.74,1.6,7157.025,128.396,4617.435,0.150,0.360,0.250,0.240,res dw|Building Unit 108,0.000,480.014
 ElectricEquipment Internal Gains Nominal, RES MISC PLUG LOADS|BUILDING UNIT 108|1_BDRM_1_3,RES MISC PLUG LOADS SCHEDULE,1_BDRM_1_3,55.74,1.6,265.888,4.770,171.541,2.100E-002,0.558,4.900E-002,0.372,res misc plug loads|Building Unit 108,0.000,265.888
 ElectricEquipment Internal Gains Nominal, RES RANGE ELECTRIC|BUILDING UNIT 108,RES RANGE ELECTRIC|FALSE SCHEDULE,1_BDRM_1_3,55.74,1.6,141.405,2.537,91.229,0.300,0.240,0.300,0.160,res range electric|Building Unit 108,0.000,141.405
 ElectricEquipment Internal Gains Nominal, RES REFRIG|BUILDING UNIT 108,RES REFRIG SCHEDULE,1_BDRM_1_3,55.74,1.6,52.191,0.936,33.672,0.000,0.000,0.000,1.000,res refrig|Building Unit 108,0.000,52.191
 ElectricEquipment Internal Gains Nominal, RES CD ELECTRIC|BUILDING UNIT 115,RES CD ELECTRIC|BUILDING UNIT 001 SCHEDULE,1_BDRM_1_4,55.74,1.6,53517.486,960.096,34527.410,5.000E-002,9.000E-002,0.800,6.000E-002,res cd electric|Building Unit 115,0.000,1202.759
 ElectricEquipment Internal Gains Nominal, RES CW|BUILDING UNIT 115,RES CW SCHEDULE 26,1_BDRM_1_4,55.74,1.6,4791.523,85.959,3091.305,0.000,0.480,0.200,0.320,res cw|Building Unit 115,0.000,107.685
 ElectricEquipment Internal Gains Nominal, RES DW|BUILDING UNIT 115,RES DW SCHEDULE 26,1_BDRM_1_4,55.74,1.6,7157.025,128.396,4617.435,0.150,0.360,0.250,0.240,res dw|Building Unit 115,0.000,480.014
 ElectricEquipment Internal Gains Nominal, RES MISC PLUG LOADS|BUILDING UNIT 115|1_BDRM_1_4,RES MISC PLUG LOADS SCHEDULE,1_BDRM_1_4,55.74,1.6,265.888,4.770,171.541,2.100E-002,0.558,4.900E-002,0.372,res misc plug loads|Building Unit 115,0.000,265.888
 ElectricEquipment Internal Gains Nominal, RES RANGE ELECTRIC|BUILDING UNIT 115,RES RANGE ELECTRIC|FALSE SCHEDULE,1_BDRM_1_4,55.74,1.6,141.405,2.537,91.229,0.300,0.240,0.300,0.160,res range electric|Building Unit 115,0.000,141.405
 ElectricEquipment Internal Gains Nominal, RES REFRIG|BUILDING UNIT 115,RES REFRIG SCHEDULE,1_BDRM_1_4,55.74,1.6,52.191,0.936,33.672,0.000,0.000,0.000,1.000,res refrig|Building Unit 115,0.000,52.191
 ElectricEquipment Internal Gains Nominal, RES CD ELECTRIC|BUILDING UNIT 102,RES CD ELECTRIC|BUILDING UNIT 001 SCHEDULE,1_BDRM_2_2,55.74,1.6,53517.486,960.096,34527.410,5.000E-002,9.000E-002,0.800,6.000E-002,res cd electric|Building Unit 102,0.000,1202.759
 ElectricEquipment Internal Gains Nominal, RES CW|BUILDING UNIT 102,RES CW SCHEDULE 13,1_BDRM_2_2,55.74,1.6,4791.523,85.959,3091.305,0.000,0.480,0.200,0.320,res cw|Building Unit 102,0.000,107.685
 ElectricEquipment Internal Gains Nominal, RES DW|BUILDING UNIT 102,RES DW SCHEDULE 13,1_BDRM_2_2,55.74,1.6,7157.025,128.396,4617.435,0.150,0.360,0.250,0.240,res dw|Building Unit 102,0.000,480.014
 ElectricEquipment Internal Gains Nominal, RES MISC PLUG LOADS|BUILDING UNIT 102|1_BDRM_2_2,RES MISC PLUG LOADS SCHEDULE,1_BDRM_2_2,55.74,1.6,265.888,4.770,171.541,2.100E-002,0.558,4.900E-002,0.372,res misc plug loads|Building Unit 102,0.000,265.888
 ElectricEquipment Internal Gains Nominal, RES RANGE ELECTRIC|BUILDING UNIT 102,RES RANGE ELECTRIC|FALSE SCHEDULE,1_BDRM_2_2,55.74,1.6,141.405,2.537,91.229,0.300,0.240,0.300,0.160,res range electric|Building Unit 102,0.000,141.405
 ElectricEquipment Internal Gains Nominal, RES REFRIG|BUILDING UNIT 102,RES REFRIG SCHEDULE,1_BDRM_2_2,55.74,1.6,52.191,0.936,33.672,0.000,0.000,0.000,1.000,res refrig|Building Unit 102,0.000,52.191
 ElectricEquipment Internal Gains Nominal, RES CD ELECTRIC|BUILDING UNIT 109,RES CD ELECTRIC|BUILDING UNIT 001 SCHEDULE,1_BDRM_2_3,55.74,1.6,53517.486,960.096,34527.410,5.000E-002,9.000E-002,0.800,6.000E-002,res cd electric|Building Unit 109,0.000,1202.759
 ElectricEquipment Internal Gains Nominal, RES CW|BUILDING UNIT 109,RES CW SCHEDULE 20,1_BDRM_2_3,55.74,1.6,4791.523,85.959,3091.305,0.000,0.480,0.200,0.320,res cw|Building Unit 109,0.000,107.685
 ElectricEquipment Internal Gains Nominal, RES DW|BUILDING UNIT 109,RES DW SCHEDULE 20,1_BDRM_2_3,55.74,1.6,7157.025,128.396,4617.435,0.150,0.360,0.250,0.240,res dw|Building Unit 109,0.000,480.014
 ElectricEquipment Internal Gains Nominal, RES MISC PLUG LOADS|BUILDING UNIT 109|1_BDRM_2_3,RES MISC PLUG LOADS SCHEDULE,1_BDRM_2_3,55.74,1.6,265.888,4.770,171.541,2.100E-002,0.558,4.900E-002,0.372,res misc plug loads|Building Unit 109,0.000,265.888
 ElectricEquipment Internal Gains Nominal, RES RANGE ELECTRIC|BUILDING UNIT 109,RES RANGE ELECTRIC|FALSE SCHEDULE,1_BDRM_2_3,55.74,1.6,141.405,2.537,91.229,0.300,0.240,0.300,0.160,res range electric|Building Unit 109,0.000,141.405
 ElectricEquipment Internal Gains Nominal, RES REFRIG|BUILDING UNIT 109,RES REFRIG SCHEDULE,1_BDRM_2_3,55.74,1.6,52.191,0.936,33.672,0.000,0.000,0.000,1.000,res refrig|Building Unit 109,0.000,52.191
[...]
 Warmup Convergence Information,ELEVATOR_2_3,SizingPeriod: SACRAMENTO METROPOLITAN AP ANN CLG .4% CONDNS WB=>MDB 1,2.7256677668E-002,1.2000012997E-002,Pass,Pass,0.0000000000,0.0000000000,Pass,Pass
 Warmup Convergence Information,ELEVATOR_2_4,SizingPeriod: SACRAMENTO METROPOLITAN AP ANN CLG .4% CONDNS WB=>MDB 1,0.1338919098,7.5460159459E-002,Pass,Pass,0.0000000000,0.0000000000,Pass,Pass
 Warmup Convergence Information,GARBAGE 1,SizingPeriod: SACRAMENTO METROPOLITAN AP ANN CLG .4% CONDNS WB=>MDB 1,0.1041075450,4.9594729993E-002,Pass,Pass,0.0000000000,0.0000000000,Pass,Pass
 Warmup Convergence Information,GYM 1,SizingPeriod: SACRAMENTO METROPOLITAN AP ANN CLG .4% CONDNS WB=>MDB 1,6.5101740608E-002,0.1158632172,Pass,Pass,0.4545278146,0.9801363118,Pass,Pass
 Warmup Convergence Information,LOBBY_ENTRY,SizingPeriod: SACRAMENTO METROPOLITAN AP ANN CLG .4% CONDNS WB=>MDB 1,0.1410936369,7.6446684840E-002,Pass,Pass,0.0000000000,0.0000000000,Pass,Pass
 Warmup Convergence Information,LT_RETAIL_1,SizingPeriod: SACRAMENTO METROPOLITAN AP ANN CLG .4% CONDNS WB=>MDB 1,0.3073147173,0.7250410028,Pass,Pass,0.4610634425,1.7039787502,Pass,Pass
 Warmup Convergence Information,LT_RETAIL_2,SizingPeriod: SACRAMENTO METROPOLITAN AP ANN CLG .4% CONDNS WB=>MDB 1,0.3142617885,0.7280434344,Pass,Pass,0.5174536488,1.8697533283,Pass,Pass
 Warmup Convergence Information,LT_RETAIL_3,SizingPeriod: SACRAMENTO METROPOLITAN AP ANN CLG .4% CONDNS WB=>MDB 1,0.3040905879,0.7219684034,Pass,Pass,0.4737282753,1.7954050516,Pass,Pass
 Warmup Convergence Information,LT_RETAIL_4,SizingPeriod: SACRAMENTO METROPOLITAN AP ANN CLG .4% CONDNS WB=>MDB 1,0.3096178067,0.7390203755,Pass,Pass,0.5741348736,1.9759679494,Pass,Pass
 Warmup Convergence Information,MAIL_SHIPPING,SizingPeriod: SACRAMENTO METROPOLITAN AP ANN CLG .4% CONDNS WB=>MDB 1,7.1140868943E-002,4.7850838637E-002,Pass,Pass,0.0000000000,0.0000000000,Pass,Pass
 Warmup Convergence Information,OFFICE 1,SizingPeriod: SACRAMENTO METROPOLITAN AP ANN CLG .4% CONDNS WB=>MDB 1,0.2533712907,0.5628923082,Pass,Pass,2.5395714828,8.5825011487,Pass,Pass
 Warmup Convergence Information,STAIRWELL_1_2,SizingPeriod: SACRAMENTO METROPOLITAN AP ANN CLG .4% CONDNS WB=>MDB 1,8.9884899352E-002,4.4451684148E-002,Pass,Pass,0.0000000000,0.0000000000,Pass,Pass
 Warmup Convergence Information,STAIRWELL_1_3,SizingPeriod: SACRAMENTO METROPOLITAN AP ANN CLG .4% CONDNS WB=>MDB 1,9.7181027457E-002,4.5364882248E-002,Pass,Pass,0.0000000000,0.0000000000,Pass,Pass
 Warmup Convergence Information,STAIRWELL_1_4,SizingPeriod: SACRAMENTO METROPOLITAN AP ANN CLG .4% CONDNS WB=>MDB 1,0.2400475861,0.1282230623,Pass,Pass,0.0000000000,0.0000000000,Pass,Pass
 Warmup Convergence Information,STAIRWELL_2_2,SizingPeriod: SACRAMENTO METROPOLITAN AP ANN CLG .4% CONDNS WB=>MDB 1,9.0735569464E-002,5.1978394889E-002,Pass,Pass,0.0000000000,0.0000000000,Pass,Pass
 Warmup Convergence Information,STAIRWELL_2_3,SizingPeriod: SACRAMENTO METROPOLITAN AP ANN CLG .4% CONDNS WB=>MDB 1,9.9466055308E-002,5.7390228328E-002,Pass,Pass,0.0000000000,0.0000000000,Pass,Pass
 Warmup Convergence Information,STAIRWELL_2_4,SizingPeriod: SACRAMENTO METROPOLITAN AP ANN CLG .4% CONDNS WB=>MDB 1,0.2493176755,0.1510204134,Pass,Pass,0.0000000000,0.0000000000,Pass,Pass
 Warmup Convergence Information,STAIR_1,SizingPeriod: SACRAMENTO METROPOLITAN AP ANN CLG .4% CONDNS WB=>MDB 1,8.0030067310E-002,4.6246756003E-002,Pass,Pass,0.0000000000,0.0000000000,Pass,Pass
 Warmup Convergence Information,STAIR_2,SizingPeriod: SACRAMENTO METROPOLITAN AP ANN CLG .4% CONDNS WB=>MDB 1,0.1272792221,6.7517792043E-002,Pass,Pass,0.0000000000,0.0000000000,Pass,Pass
Environment,SACRAMENTO METROPOLITAN AP ANN HTG 99.6% CONDNS DB 1,SizingPeriod:DesignDay,12/21,12/21,WinterDesignDay,1,N/A,N/A,N/A,N/A,N/A,N/A,Clark and Allen
Environment:Daylight Saving,No,SizingPeriod:DesignDay
Environment:Design Day Data,-0.30,0.00,DefaultMultipliers,Wetbulb,-0.30,{C},101241,320,1.4,0.00,No,No
Environment:Design Day Misc,355,1232.8,0.1424,5.7719E-002,1.0,2.45,-23.5,ASHRAEClearSky
Environment:WarmupDays,  5
 Warmup Convergence Information,0_BDRM_1_2,SizingPeriod: SACRAMENTO METROPOLITAN AP ANN HTG 99.6% CONDNS DB 1,2.8164768828E-007,3.1871404179E-007,Pass,Pass,1.1846690913E-002,8.7863211773E-003,Pass,Pass
 Warmup Convergence Information,0_BDRM_1_3,SizingPeriod: SACRAMENTO METROPOLITAN AP ANN HTG 99.6% CONDNS DB 1,2.7833366885E-007,3.1210292088E-007,Pass,Pass,8.8140430969E-003,6.0077589666E-003,Pass,Pass
 Warmup Convergence Information,0_BDRM_1_4,SizingPeriod: SACRAMENTO METROPOLITAN AP ANN HTG 99.6% CONDNS DB 1,3.6690768897E-007,4.1148872150E-007,Pass,Pass,5.4598857302E-003,3.6575826346E-003,Pass,Pass
 Warmup Convergence Information,0_BDRM_2_2,SizingPeriod: SACRAMENTO METROPOLITAN AP ANN HTG 99.6% CONDNS DB 1,2.9499826108E-007,3.3145906721E-007,Pass,Pass,7.8737209554E-003,5.3595055724E-003,Pass,Pass
 Warmup Convergence Information,0_BDRM_2_3,SizingPeriod: SACRAMENTO METROPOLITAN AP ANN HTG 99.6% CONDNS DB 1,2.9321298841E-007,3.2868150387E-007,Pass,Pass,8.1777161532E-003,5.4620610844E-003,Pass,Pass
 Warmup Convergence Information,0_BDRM_2_4,SizingPeriod: SACRAMENTO METROPOLITAN AP ANN HTG 99.6% CONDNS DB 1,3.9671130706E-007,4.4481417899E-007,Pass,Pass,4.9116111021E-003,3.2786573756E-003,Pass,Pass
 Warmup Convergence Information,0_BDRM_3_2,SizingPeriod: SACRAMENTO METROPOLITAN AP ANN HTG 99.6% CONDNS DB 1,2.5210960741E-007,2.8248156095E-007,Pass,Pass,9.8998976014E-003,6.5238644422E-003,Pass,Pass
 Warmup Convergence Information,0_BDRM_3_3,SizingPeriod: SACRAMENTO METROPOLITAN AP ANN HTG 99.6% CONDNS DB 1,2.7111841424E-007,3.0370780770E-007,Pass,Pass,9.4517563243E-003,6.3314291216E-003,Pass,Pass
 Warmup Convergence Information,0_BDRM_3_4,SizingPeriod: SACRAMENTO METROPOLITAN AP ANN HTG 99.6% CONDNS DB 1,3.7012787798E-007,4.1536051774E-007,Pass,Pass,5.5752531579E-003,3.7303573427E-003,Pass,Pass
 Warmup Convergence Information,0_BDRM_4_2,SizingPeriod: SACRAMENTO METROPOLITAN AP ANN HTG 99.6% CONDNS DB 1,2.4904065935E-007,2.7900587839E-007,Pass,Pass,1.0074671229E-002,6.6377226152E-003,Pass,Pass
 Warmup Convergence Information,0_BDRM_4_3,SizingPeriod: SACRAMENTO METROPOLITAN AP ANN HTG 99.6% CONDNS DB 1,2.6968167951E-007,3.0207534131E-007,Pass,Pass,9.5494426450E-003,6.4013844443E-003,Pass,Pass
 Warmup Convergence Information,0_BDRM_4_4,SizingPeriod: SACRAMENTO METROPOLITAN AP ANN HTG 99.6% CONDNS DB 1,3.6872366775E-007,4.1381290843E-007,Pass,Pass,5.6166773501E-003,3.7591370421E-003,Pass,Pass
 Warmup Convergence Information,1_BDRM_1_2,SizingPeriod: SACRAMENTO METROPOLITAN AP ANN HTG 99.6% CONDNS DB 1,3.3773213707E-007,3.8188988130E-007,Pass,Pass,7.6106577298E-003,4.9422297469E-003,Pass,Pass
 Warmup Convergence Information,1_BDRM_1_3,SizingPeriod: SACRAMENTO METROPOLITAN AP ANN HTG 99.6% CONDNS DB 1,3.3701081511E-007,3.8009357561E-007,Pass,Pass,5.9034145555E-003,3.9684240299E-003,Pass,Pass
 Warmup Convergence Information,1_BDRM_1_4,SizingPeriod: SACRAMENTO METROPOLITAN AP ANN HTG 99.6% CONDNS DB 1,4.3556468358E-007,4.8970126903E-007,Pass,Pass,3.6664570678E-003,2.4466823473E-003,Pass,Pass
 Warmup Convergence Information,1_BDRM_2_2,SizingPeriod: SACRAMENTO METROPOLITAN AP ANN HTG 99.6% CONDNS DB 1,3.3075326492E-007,3.7524856693E-007,Pass,Pass,6.3128083951E-003,4.4641785502E-003,Pass,Pass
 Warmup Convergence Information,1_BDRM_2_3,SizingPeriod: SACRAMENTO METROPOLITAN AP ANN HTG 99.6% CONDNS DB 1,3.2309347538E-007,3.6455621601E-007,Pass,Pass,6.5046801979E-003,4.3708915392E-003,Pass,Pass
 Warmup Convergence Information,1_BDRM_2_4,SizingPeriod: SACRAMENTO METROPOLITAN AP ANN HTG 99.6% CONDNS DB 1,4.1553252483E-007,4.6768223113E-007,Pass,Pass,4.0228641718E-003,2.6893870949E-003,Pass,Pass
 Warmup Convergence Information,1_BDRM_3_2,SizingPeriod: SACRAMENTO METROPOLITAN AP ANN HTG 99.6% CONDNS DB 1,3.2900840038E-007,3.7462874197E-007,Pass,Pass,6.4942331132E-003,5.0641947110E-003,Pass,Pass
 Warmup Convergence Information,1_BDRM_3_3,SizingPeriod: SACRAMENTO METROPOLITAN AP ANN HTG 99.6% CONDNS DB 1,3.2263462494E-007,3.6407326523E-007,Pass,Pass,6.5312805752E-003,4.4071424323E-003,Pass,Pass
 Warmup Convergence Information,1_BDRM_3_4,SizingPeriod: SACRAMENTO METROPOLITAN AP ANN HTG 99.6% CONDNS DB 1,4.1479693680E-007,4.6688277551E-007,Pass,Pass,4.0417668198E-003,2.7032847385E-003,Pass,Pass
 Warmup Convergence Information,1_BDRM_4_2,SizingPeriod: SACRAMENTO METROPOLITAN AP ANN HTG 99.6% CONDNS DB 1,3.7922437901E-007,4.3253483753E-007,Pass,Pass,5.9718954594E-003,4.8009028207E-003,Pass,Pass
 Warmup Convergence Information,1_BDRM_4_3,SizingPeriod: SACRAMENTO METROPOLITAN AP ANN HTG 99.6% CONDNS DB 1,3.6752925695E-007,4.1702467026E-007,Pass,Pass,4.7998548160E-003,3.2669690051E-003,Pass,Pass
 Warmup Convergence Information,1_BDRM_4_4,SizingPeriod: SACRAMENTO METROPOLITAN AP ANN HTG 99.6% CONDNS DB 1,4.5499591176E-007,5.1344760579E-007,Pass,Pass,3.1049047160E-003,2.0767086942E-003,Pass,Pass
 Warmup Convergence Information,1_BDRM_5_2,SizingPeriod: SACRAMENTO METROPOLITAN AP ANN HTG 99.6% CONDNS DB 1,3.6164832906E-007,4.0999133368E-007,Pass,Pass,9.4825692153E-003,5.5336518025E-003,Pass,Pass
 Warmup Convergence Information,1_BDRM_5_3,SizingPeriod: SACRAMENTO METROPOLITAN AP ANN HTG 99.6% CONDNS DB 1,3.6056756351E-007,4.0929723023E-007,Pass,Pass,4.9723132217E-003,3.4055730137E-003,Pass,Pass
 Warmup Convergence Information,1_BDRM_5_4,SizingPeriod: SACRAMENTO METROPOLITAN AP ANN HTG 99.6% CONDNS DB 1,4.5241287353E-007,5.1069588445E-007,Pass,Pass,3.1489282755E-003,2.1085127067E-003,Pass,Pass
 Warmup Convergence Information,1_BDRM_6_2,SizingPeriod: SACRAMENTO METROPOLITAN AP ANN HTG 99.6% CONDNS DB 1,3.0343943402E-007,3.4342317824E-007,Pass,Pass,7.0262515520E-003,4.7049524307E-003,Pass,Pass
 Warmup Convergence Information,1_BDRM_6_3,SizingPeriod: SACRAMENTO METROPOLITAN AP ANN HTG 99.6% CONDNS DB 1,3.2474950729E-007,3.6657619973E-007,Pass,Pass,6.6273096268E-003,4.4486706242E-003,Pass,Pass
 Warmup Convergence Information,1_BDRM_6_4,SizingPeriod: SACRAMENTO METROPOLITAN AP ANN HTG 99.6% CONDNS DB 1,4.2084579747E-007,4.7387167907E-007,Pass,Pass,4.0464848331E-003,2.7061075666E-003,Pass,Pass
 Warmup Convergence Information,1_BDRM_7_2,SizingPeriod: SACRAMENTO METROPOLITAN AP ANN HTG 99.6% CONDNS DB 1,3.5700615279E-007,4.0409034197E-007,Pass,Pass,9.9558575069E-003,5.5948805803E-003,Pass,Pass
 Warmup Convergence Information,1_BDRM_7_3,SizingPeriod: SACRAMENTO METROPOLITAN AP ANN HTG 99.6% CONDNS DB 1,3.5494895556E-007,4.0274331788E-007,Pass,Pass,4.9879258883E-003,3.4273447723E-003,Pass,Pass
 Warmup Convergence Information,1_BDRM_7_4,SizingPeriod: SACRAMENTO METROPOLITAN AP ANN HTG 99.6% CONDNS DB 1,4.4577536403E-007,5.0314776229E-007,Pass,Pass,3.1617518591E-003,2.1172411597E-003,Pass,Pass
 Warmup Convergence Information,2_BDRM_1_2,SizingPeriod: SACRAMENTO METROPOLITAN AP ANN HTG 99.6% CONDNS DB 1,5.8173532524E-007,6.4959726362E-007,Pass,Pass,6.9911988816E-003,3.2126638967E-003,Pass,Pass
 Warmup Convergence Information,2_BDRM_1_3,SizingPeriod: SACRAMENTO METROPOLITAN AP ANN HTG 99.6% CONDNS DB 1,5.6643996871E-007,6.3549972254E-007,Pass,Pass,1.6196592533E-003,1.1617812907E-003,Pass,Pass
 Warmup Convergence Information,2_BDRM_1_4,SizingPeriod: SACRAMENTO METROPOLITAN AP ANN HTG 99.6% CONDNS DB 1,6.4499071965E-007,7.1827435808E-007,Pass,Pass,1.2799167420E-003,8.5772611233E-004,Pass,Pass
 Warmup Convergence Information,2_BDRM_2_2,SizingPeriod: SACRAMENTO METROPOLITAN AP ANN HTG 99.6% CONDNS DB 1,5.7542865243E-007,6.4207846148E-007,Pass,Pass,6.5581774167E-003,3.0197585324E-003,Pass,Pass
 Warmup Convergence Information,2_BDRM_2_3,SizingPeriod: SACRAMENTO METROPOLITAN AP ANN HTG 99.6% CONDNS DB 1,5.6738429510E-007,6.3678609012E-007,Pass,Pass,1.5117214530E-003,1.0842270827E-003,Pass,Pass
 Warmup Convergence Information,2_BDRM_2_4,SizingPeriod: SACRAMENTO METROPOLITAN AP ANN HTG 99.6% CONDNS DB 1,6.4218792994E-007,7.1546474478E-007,Pass,Pass,1.1889585391E-003,7.9657970128E-004,Pass,Pass
 Warmup Convergence Information,2_BDRM_3_2,SizingPeriod: SACRAMENTO METROPOLITAN AP ANN HTG 99.6% CONDNS DB 1,5.2899054500E-007,5.9514803218E-007,Pass,Pass,5.1297584657E-003,3.0337471371E-003,Pass,Pass
 Warmup Convergence Information,2_BDRM_3_3,SizingPeriod: SACRAMENTO METROPOLITAN AP ANN HTG 99.6% CONDNS DB 1,5.6155477883E-007,6.3059354425E-007,Pass,Pass,1.6162976808E-003,1.1171125869E-003,Pass,Pass
 Warmup Convergence Information,2_BDRM_3_4,SizingPeriod: SACRAMENTO METROPOLITAN AP ANN HTG 99.6% CONDNS DB 1,6.4624213551E-007,7.1970349856E-007,Pass,Pass,1.2244727371E-003,8.1738285004E-004,Pass,Pass
 Warmup Convergence Information,3_BDRM_1_3,SizingPeriod: SACRAMENTO METROPOLITAN AP ANN HTG 99.6% CONDNS DB 1,5.4745543772E-007,6.1620694790E-007,Pass,Pass,1.3588034222E-003,1.0015821902E-003,Pass,Pass
 Warmup Convergence Information,3_BDRM_1_4,SizingPeriod: SACRAMENTO METROPOLITAN AP ANN HTG 99.6% CONDNS DB 1,6.3193186461E-007,7.0543222584E-007,Pass,Pass,1.0346719513E-003,6.9152673723E-004,Pass,Pass
 Warmup Convergence Information,3_BDRM_2_2,SizingPeriod: SACRAMENTO METROPOLITAN AP ANN HTG 99.6% CONDNS DB 1,5.4617685471E-007,6.0995049047E-007,Pass,Pass,6.8683714049E-003,4.4868185531E-003,Pass,Pass
 Warmup Convergence Information,BATHRM_1,SizingPeriod: SACRAMENTO METROPOLITAN AP ANN HTG 99.6% CONDNS DB 1,2.6316205467E-007,2.8086731154E-007,Pass,Pass,3.5063337634E-002,2.5090624794E-002,Pass,Pass
 Warmup Convergence Information,BATHRM_2,SizingPeriod: SACRAMENTO METROPOLITAN AP ANN HTG 99.6% CONDNS DB 1,2.6659600927E-007,2.7961023669E-007,Pass,Pass,4.8750321445E-002,3.9646197493E-002,Pass,Pass
 Warmup Convergence Information,COFFEE_SHOP,SizingPeriod: SACRAMENTO METROPOLITAN AP ANN HTG 99.6% CONDNS DB 1,0.4623716001,1.1082885756,Pass,Pass,0.1171047684,0.1637396529,Pass,Pass
 Warmup Convergence Information,COMMUNITY_RM,SizingPeriod: SACRAMENTO METROPOLITAN AP ANN HTG 99.6% CONDNS DB 1,1.3181692755E-006,1.2439466805E-006,Pass,Pass,6.4632849226E-002,0.1028818595,Pass,Pass
 Warmup Convergence Information,CORRIDOR,SizingPeriod: SACRAMENTO METROPOLITAN AP ANN HTG 99.6% CONDNS DB 1,8.1938188508E-005,2.1899468655E-004,Pass,Pass,4.8633233490E-002,4.2497021170E-002,Pass,Pass
 Warmup Convergence Information,CORRIDOR_2,SizingPeriod: SACRAMENTO METROPOLITAN AP ANN HTG 99.6% CONDNS DB 1,1.8537238441E-007,2.1815808862E-007,Pass,Pass,5.9972224723E-003,2.7240898437E-003,Pass,Pass
 Warmup Convergence Information,CORRIDOR_3,SizingPeriod: SACRAMENTO METROPOLITAN AP ANN HTG 99.6% CONDNS DB 1,1.7681148456E-007,2.0977868880E-007,Pass,Pass,3.3556594497E-004,1.7957979040E-004,Pass,Pass
 Warmup Convergence Information,CORRIDOR_4,SizingPeriod: SACRAMENTO METROPOLITAN AP ANN HTG 99.6% CONDNS DB 1,2.8972434792E-007,3.3851709476E-007,Pass,Pass,1.3012458132E-005,8.3486349364E-006,Pass,Pass
 Warmup Convergence Information,ELEVATOR_1,SizingPeriod: SACRAMENTO METROPOLITAN AP ANN HTG 99.6% CONDNS DB 1,7.0987257145E-002,5.2172340370E-002,Pass,Pass,0.0000000000,0.0000000000,Pass,Pass
 Warmup Convergence Information,ELEVATOR_1_2,SizingPeriod: SACRAMENTO METROPOLITAN AP ANN HTG 99.6% CONDNS DB 1,6.0769762628E-003,2.8301590443E-003,Pass,Pass,0.0000000000,0.0000000000,Pass,Pass
 Warmup Convergence Information,ELEVATOR_1_3,SizingPeriod: SACRAMENTO METROPOLITAN AP ANN HTG 99.6% CONDNS DB 1,3.4683950646E-004,1.8124150058E-004,Pass,Pass,0.0000000000,0.0000000000,Pass,Pass
 Warmup Convergence Information,ELEVATOR_1_4,SizingPeriod: SACRAMENTO METROPOLITAN AP ANN HTG 99.6% CONDNS DB 1,2.9777976009E-005,1.7893880755E-005,Pass,Pass,0.0000000000,0.0000000000,Pass,Pass
 Warmup Convergence Information,ELEVATOR_2,SizingPeriod: SACRAMENTO METROPOLITAN AP ANN HTG 99.6% CONDNS DB 1,8.7278905179E-002,6.9075033786E-002,Pass,Pass,0.0000000000,0.0000000000,Pass,Pass
 Warmup Convergence Information,ELEVATOR_2_2,SizingPeriod: SACRAMENTO METROPOLITAN AP ANN HTG 99.6% CONDNS DB 1,7.4908448891E-003,3.2960767396E-003,Pass,Pass,0.0000000000,0.0000000000,Pass,Pass
 Warmup Convergence Information,ELEVATOR_2_3,SizingPeriod: SACRAMENTO METROPOLITAN AP ANN HTG 99.6% CONDNS DB 1,4.2754904771E-004,2.2395096525E-004,Pass,Pass,0.0000000000,0.0000000000,Pass,Pass
 Warmup Convergence Information,ELEVATOR_2_4,SizingPeriod: SACRAMENTO METROPOLITAN AP ANN HTG 99.6% CONDNS DB 1,3.7072473418E-005,2.1097988333E-005,Pass,Pass,0.0000000000,0.0000000000,Pass,Pass
 Warmup Convergence Information,GARBAGE 1,SizingPeriod: SACRAMENTO METROPOLITAN AP ANN HTG 99.6% CONDNS DB 1,8.3454958774E-003,5.6700330670E-003,Pass,Pass,0.0000000000,0.0000000000,Pass,Pass
 Warmup Convergence Information,GYM 1,SizingPeriod: SACRAMENTO METROPOLITAN AP ANN HTG 99.6% CONDNS DB 1,2.7028185338E-002,5.5808821290E-002,Pass,Pass,0.2795504889,0.3331358164,Pass,Pass
 Warmup Convergence Information,LOBBY_ENTRY,SizingPeriod: SACRAMENTO METROPOLITAN AP ANN HTG 99.6% CONDNS DB 1,1.6794682340E-002,1.0745629744E-002,Pass,Pass,0.0000000000,0.0000000000,Pass,Pass
 Warmup Convergence Information,LT_RETAIL_1,SizingPeriod: SACRAMENTO METROPOLITAN AP ANN HTG 99.6% CONDNS DB 1,0.3360549364,0.7146358795,Pass,Pass,0.1017701550,0.2070168471,Pass,Pass
 Warmup Convergence Information,LT_RETAIL_2,SizingPeriod: SACRAMENTO METROPOLITAN AP ANN HTG 99.6% CONDNS DB 1,0.4123711117,0.8310622081,Pass,Pass,9.0109478939E-002,0.1611219713,Pass,Pass
 Warmup Convergence Information,LT_RETAIL_3,SizingPeriod: SACRAMENTO METROPOLITAN AP ANN HTG 99.6% CONDNS DB 1,0.3241123220,0.7049158308,Pass,Pass,9.0749849882E-002,0.1935607244,Pass,Pass
 Warmup Convergence Information,LT_RETAIL_4,SizingPeriod: SACRAMENTO METROPOLITAN AP ANN HTG 99.6% CONDNS DB 1,0.4123692437,0.8343618483,Pass,Pass,9.1589094371E-002,0.1698288112,Pass,Pass
 Warmup Convergence Information,MAIL_SHIPPING,SizingPeriod: SACRAMENTO METROPOLITAN AP ANN HTG 99.6% CONDNS DB 1,4.4664434043E-002,3.0586259621E-002,Pass,Pass,0.0000000000,0.0000000000,Pass,Pass
 Warmup Convergence Information,OFFICE 1,SizingPeriod: SACRAMENTO METROPOLITAN AP ANN HTG 99.6% CONDNS DB 1,0.2123544197,0.5586802465,Pass,Pass,0.1934258667,0.4558714077,Pass,Pass
 Warmup Convergence Information,STAIRWELL_1_2,SizingPeriod: SACRAMENTO METROPOLITAN AP ANN HTG 99.6% CONDNS DB 1,2.8503531491E-003,1.5308329412E-003,Pass,Pass,0.0000000000,0.0000000000,Pass,Pass
 Warmup Convergence Information,STAIRWELL_1_3,SizingPeriod: SACRAMENTO METROPOLITAN AP ANN HTG 99.6% CONDNS DB 1,2.3134041487E-004,1.3898573912E-004,Pass,Pass,0.0000000000,0.0000000000,Pass,Pass
 Warmup Convergence Information,STAIRWELL_1_4,SizingPeriod: SACRAMENTO METROPOLITAN AP ANN HTG 99.6% CONDNS DB 1,5.1565905518E-005,1.8513200752E-005,Pass,Pass,0.0000000000,0.0000000000,Pass,Pass
 Warmup Convergence Information,STAIRWELL_2_2,SizingPeriod: SACRAMENTO METROPOLITAN AP ANN HTG 99.6% CONDNS DB 1,5.0191246771E-003,2.9236248974E-003,Pass,Pass,0.0000000000,0.0000000000,Pass,Pass
 Warmup Convergence Information,STAIRWELL_2_3,SizingPeriod: SACRAMENTO METROPOLITAN AP ANN HTG 99.6% CONDNS DB 1,4.2769383835E-004,2.3218384886E-004,Pass,Pass,0.0000000000,0.0000000000,Pass,Pass
 Warmup Convergence Information,STAIRWELL_2_4,SizingPeriod: SACRAMENTO METROPOLITAN AP ANN HTG 99.6% CONDNS DB 1,5.0724390930E-005,3.4935872307E-005,Pass,Pass,0.0000000000,0.0000000000,Pass,Pass
 Warmup Convergence Information,STAIR_1,SizingPeriod: SACRAMENTO METROPOLITAN AP ANN HTG 99.6% CONDNS DB 1,5.0251287493E-002,4.0364044291E-002,Pass,Pass,0.0000000000,0.0000000000,Pass,Pass
 Warmup Convergence Information,STAIR_2,SizingPeriod: SACRAMENTO METROPOLITAN AP ANN HTG 99.6% CONDNS DB 1,3.6503713218E-002,2.6211371106E-002,Pass,Pass,0.0000000000,0.0000000000,Pass,Pass
! <Program Control Information:Threads/Parallel Sims>, Threading Supported,Maximum Number of Threads, Env Set Threads (OMP_NUM_THREADS), EP Env Set Threads (EP_OMP_NUM_THREADS), IDF Set Threads, Number of Threads Used (Interior Radiant Exchange), Number Nominal Surfaces, Number Parallel Sims
Program Control:Threads/Parallel Sims, No,1, N/A, N/A, N/A, N/A, N/A, N/A
End of Data
