Program Version,EnergyPlus, Version 9.3.0-baff08990c, YMD=2021.05.14 15:27
! This file shows details about the branches, nodes, and other
! elements of the flow connections.
! This file is intended for use in "debugging" potential problems
! that may also be detected by the program, but may be more easily
! identified by "eye".
! This file is also intended to support software which draws a
! schematic diagram of the HVAC system.
! ===============================================================
! #Nodes,<Number of Unique Nodes>
 #Nodes,1881
! <Node>,<NodeNumber>,<Node Name>,<Node Fluid Type>,<# Times Node Referenced After Definition>
 Node,1,0_BDRM_1_2 ERV OUTLET AIR NODE,Air,3
 Node,2,0_BDRM_1_2 DIRECT AIR OUTLET AIR NODE,Air,3
 Node,3,0_BDRM_1_2 ERV INLET AIR NODE,Air,3
 Node,4,0_BDRM_1_2 RETURN AIR NODE,Air,2
 Node,5,0_BDRM_1_3 ERV OUTLET AIR NODE,Air,3
 Node,6,0_BDRM_1_3 DIRECT AIR OUTLET AIR NODE,Air,3
 Node,7,0_BDRM_1_3 ERV INLET AIR NODE,Air,3
 Node,8,0_BDRM_1_3 RETURN AIR NODE,Air,2
 Node,9,0_BDRM_1_4 ERV OUTLET AIR NODE,Air,3
 Node,10,0_BDRM_1_4 DIRECT AIR OUTLET AIR NODE,Air,3
 Node,11,0_BDRM_1_4 ERV INLET AIR NODE,Air,3
 Node,12,0_BDRM_1_4 RETURN AIR NODE,Air,2
 Node,13,0_BDRM_2_2 ERV OUTLET AIR NODE,Air,3
 Node,14,0_BDRM_2_2 DIRECT AIR OUTLET AIR NODE,Air,3
 Node,15,0_BDRM_2_2 ERV INLET AIR NODE,Air,3
 Node,16,0_BDRM_2_2 RETURN AIR NODE,Air,2
 Node,17,0_BDRM_2_3 ERV OUTLET AIR NODE,Air,3
 Node,18,0_BDRM_2_3 DIRECT AIR OUTLET AIR NODE,Air,3
 Node,19,0_BDRM_2_3 ERV INLET AIR NODE,Air,3
 Node,20,0_BDRM_2_3 RETURN AIR NODE,Air,2
 Node,21,0_BDRM_2_4 ERV OUTLET AIR NODE,Air,3
 Node,22,0_BDRM_2_4 DIRECT AIR OUTLET AIR NODE,Air,3
 Node,23,0_BDRM_2_4 ERV INLET AIR NODE,Air,3
 Node,24,0_BDRM_2_4 RETURN AIR NODE,Air,2
 Node,25,0_BDRM_3_2 ERV OUTLET AIR NODE,Air,3
 Node,26,0_BDRM_3_2 DIRECT AIR OUTLET AIR NODE,Air,3
 Node,27,0_BDRM_3_2 ERV INLET AIR NODE,Air,3
 Node,28,0_BDRM_3_2 RETURN AIR NODE,Air,2
 Node,29,0_BDRM_3_3 ERV OUTLET AIR NODE,Air,3
 Node,30,0_BDRM_3_3 DIRECT AIR OUTLET AIR NODE,Air,3
 Node,31,0_BDRM_3_3 ERV INLET AIR NODE,Air,3
 Node,32,0_BDRM_3_3 RETURN AIR NODE,Air,2
 Node,33,0_BDRM_3_4 ERV OUTLET AIR NODE,Air,3
 Node,34,0_BDRM_3_4 DIRECT AIR OUTLET AIR NODE,Air,3
 Node,35,0_BDRM_3_4 ERV INLET AIR NODE,Air,3
 Node,36,0_BDRM_3_4 RETURN AIR NODE,Air,2
 Node,37,0_BDRM_4_2 ERV OUTLET AIR NODE,Air,3
 Node,38,0_BDRM_4_2 DIRECT AIR OUTLET AIR NODE,Air,3
 Node,39,0_BDRM_4_2 ERV INLET AIR NODE,Air,3
 Node,40,0_BDRM_4_2 RETURN AIR NODE,Air,2
 Node,41,0_BDRM_4_3 ERV OUTLET AIR NODE,Air,3
 Node,42,0_BDRM_4_3 DIRECT AIR OUTLET AIR NODE,Air,3
 Node,43,0_BDRM_4_3 ERV INLET AIR NODE,Air,3
 Node,44,0_BDRM_4_3 RETURN AIR NODE,Air,2
 Node,45,0_BDRM_4_4 ERV OUTLET AIR NODE,Air,3
 Node,46,0_BDRM_4_4 DIRECT AIR OUTLET AIR NODE,Air,3
 Node,47,0_BDRM_4_4 ERV INLET AIR NODE,Air,3
 Node,48,0_BDRM_4_4 RETURN AIR NODE,Air,2
 Node,49,1_BDRM_1_2 ERV OUTLET AIR NODE,Air,3
 Node,50,1_BDRM_1_2 DIRECT AIR OUTLET AIR NODE,Air,3
 Node,51,1_BDRM_1_2 ERV INLET AIR NODE,Air,3
 Node,52,1_BDRM_1_2 RETURN AIR NODE,Air,2
 Node,53,1_BDRM_1_3 ERV OUTLET AIR NODE,Air,3
 Node,54,1_BDRM_1_3 DIRECT AIR OUTLET AIR NODE,Air,3
 Node,55,1_BDRM_1_3 ERV INLET AIR NODE,Air,3
 Node,56,1_BDRM_1_3 RETURN AIR NODE,Air,2
 Node,57,1_BDRM_1_4 ERV OUTLET AIR NODE,Air,3
 Node,58,1_BDRM_1_4 DIRECT AIR OUTLET AIR NODE,Air,3
 Node,59,1_BDRM_1_4 ERV INLET AIR NODE,Air,3
 Node,60,1_BDRM_1_4 RETURN AIR NODE,Air,2
 Node,61,1_BDRM_2_2 ERV OUTLET AIR NODE,Air,3
 Node,62,1_BDRM_2_2 DIRECT AIR OUTLET AIR NODE,Air,3
 Node,63,1_BDRM_2_2 ERV INLET AIR NODE,Air,3
 Node,64,1_BDRM_2_2 RETURN AIR NODE,Air,2
 Node,65,1_BDRM_2_3 ERV OUTLET AIR NODE,Air,3
 Node,66,1_BDRM_2_3 DIRECT AIR OUTLET AIR NODE,Air,3
 Node,67,1_BDRM_2_3 ERV INLET AIR NODE,Air,3
 Node,68,1_BDRM_2_3 RETURN AIR NODE,Air,2
 Node,69,1_BDRM_2_4 ERV OUTLET AIR NODE,Air,3
 Node,70,1_BDRM_2_4 DIRECT AIR OUTLET AIR NODE,Air,3
 Node,71,1_BDRM_2_4 ERV INLET AIR NODE,Air,3
 Node,72,1_BDRM_2_4 RETURN AIR NODE,Air,2
 Node,73,1_BDRM_3_2 ERV OUTLET AIR NODE,Air,3
 Node,74,1_BDRM_3_2 DIRECT AIR OUTLET AIR NODE,Air,3
 Node,75,1_BDRM_3_2 ERV INLET AIR NODE,Air,3
 Node,76,1_BDRM_3_2 RETURN AIR NODE,Air,2
 Node,77,1_BDRM_3_3 ERV OUTLET AIR NODE,Air,3
 Node,78,1_BDRM_3_3 DIRECT AIR OUTLET AIR NODE,Air,3
 Node,79,1_BDRM_3_3 ERV INLET AIR NODE,Air,3
 Node,80,1_BDRM_3_3 RETURN AIR NODE,Air,2
 Node,81,1_BDRM_3_4 ERV OUTLET AIR NODE,Air,3
 Node,82,1_BDRM_3_4 DIRECT AIR OUTLET AIR NODE,Air,3
 Node,83,1_BDRM_3_4 ERV INLET AIR NODE,Air,3
 Node,84,1_BDRM_3_4 RETURN AIR NODE,Air,2
 Node,85,1_BDRM_4_2 ERV OUTLET AIR NODE,Air,3
 Node,86,1_BDRM_4_2 DIRECT AIR OUTLET AIR NODE,Air,3
 Node,87,1_BDRM_4_2 ERV INLET AIR NODE,Air,3
 Node,88,1_BDRM_4_2 RETURN AIR NODE,Air,2
 Node,89,1_BDRM_4_3 ERV OUTLET AIR NODE,Air,3
 Node,90,1_BDRM_4_3 DIRECT AIR OUTLET AIR NODE,Air,3
 Node,91,1_BDRM_4_3 ERV INLET AIR NODE,Air,3
 Node,92,1_BDRM_4_3 RETURN AIR NODE,Air,2
 Node,93,1_BDRM_4_4 ERV OUTLET AIR NODE,Air,3
 Node,94,1_BDRM_4_4 DIRECT AIR OUTLET AIR NODE,Air,3
 Node,95,1_BDRM_4_4 ERV INLET AIR NODE,Air,3
 Node,96,1_BDRM_4_4 RETURN AIR NODE,Air,2
 Node,97,1_BDRM_5_2 ERV OUTLET AIR NODE,Air,3
 Node,98,1_BDRM_5_2 DIRECT AIR OUTLET AIR NODE,Air,3
 Node,99,1_BDRM_5_2 ERV INLET AIR NODE,Air,3
 Node,100,1_BDRM_5_2 RETURN AIR NODE,Air,2
 Node,101,1_BDRM_5_3 ERV OUTLET AIR NODE,Air,3
 Node,102,1_BDRM_5_3 DIRECT AIR OUTLET AIR NODE,Air,3
 Node,103,1_BDRM_5_3 ERV INLET AIR NODE,Air,3
 Node,104,1_BDRM_5_3 RETURN AIR NODE,Air,2
 Node,105,1_BDRM_5_4 ERV OUTLET AIR NODE,Air,3
 Node,106,1_BDRM_5_4 DIRECT AIR OUTLET AIR NODE,Air,3
 Node,107,1_BDRM_5_4 ERV INLET AIR NODE,Air,3
 Node,108,1_BDRM_5_4 RETURN AIR NODE,Air,2
 Node,109,1_BDRM_6_2 ERV OUTLET AIR NODE,Air,3
 Node,110,1_BDRM_6_2 DIRECT AIR OUTLET AIR NODE,Air,3
 Node,111,1_BDRM_6_2 ERV INLET AIR NODE,Air,3
 Node,112,1_BDRM_6_2 RETURN AIR NODE,Air,2
 Node,113,1_BDRM_6_3 ERV OUTLET AIR NODE,Air,3
 Node,114,1_BDRM_6_3 DIRECT AIR OUTLET AIR NODE,Air,3
 Node,115,1_BDRM_6_3 ERV INLET AIR NODE,Air,3
 Node,116,1_BDRM_6_3 RETURN AIR NODE,Air,2
 Node,117,1_BDRM_6_4 ERV OUTLET AIR NODE,Air,3
 Node,118,1_BDRM_6_4 DIRECT AIR OUTLET AIR NODE,Air,3
 Node,119,1_BDRM_6_4 ERV INLET AIR NODE,Air,3
 Node,120,1_BDRM_6_4 RETURN AIR NODE,Air,2
 Node,121,1_BDRM_7_2 ERV OUTLET AIR NODE,Air,3
 Node,122,1_BDRM_7_2 DIRECT AIR OUTLET AIR NODE,Air,3
 Node,123,1_BDRM_7_2 ERV INLET AIR NODE,Air,3
 Node,124,1_BDRM_7_2 RETURN AIR NODE,Air,2
 Node,125,1_BDRM_7_3 ERV OUTLET AIR NODE,Air,3
 Node,126,1_BDRM_7_3 DIRECT AIR OUTLET AIR NODE,Air,3
 Node,127,1_BDRM_7_3 ERV INLET AIR NODE,Air,3
 Node,128,1_BDRM_7_3 RETURN AIR NODE,Air,2
 Node,129,1_BDRM_7_4 ERV OUTLET AIR NODE,Air,3
 Node,130,1_BDRM_7_4 DIRECT AIR OUTLET AIR NODE,Air,3
 Node,131,1_BDRM_7_4 ERV INLET AIR NODE,Air,3
 Node,132,1_BDRM_7_4 RETURN AIR NODE,Air,2
 Node,133,2_BDRM_1_2 ERV OUTLET AIR NODE,Air,3
 Node,134,2_BDRM_1_2 DIRECT AIR OUTLET AIR NODE,Air,3
 Node,135,2_BDRM_1_2 ERV INLET AIR NODE,Air,3
 Node,136,2_BDRM_1_2 RETURN AIR NODE,Air,2
 Node,137,2_BDRM_1_3 ERV OUTLET AIR NODE,Air,3
 Node,138,2_BDRM_1_3 DIRECT AIR OUTLET AIR NODE,Air,3
 Node,139,2_BDRM_1_3 ERV INLET AIR NODE,Air,3
 Node,140,2_BDRM_1_3 RETURN AIR NODE,Air,2
 Node,141,2_BDRM_1_4 ERV OUTLET AIR NODE,Air,3
 Node,142,2_BDRM_1_4 DIRECT AIR OUTLET AIR NODE,Air,3
 Node,143,2_BDRM_1_4 ERV INLET AIR NODE,Air,3
 Node,144,2_BDRM_1_4 RETURN AIR NODE,Air,2
 Node,145,2_BDRM_2_2 ERV OUTLET AIR NODE,Air,3
 Node,146,2_BDRM_2_2 DIRECT AIR OUTLET AIR NODE,Air,3
 Node,147,2_BDRM_2_2 ERV INLET AIR NODE,Air,3
 Node,148,2_BDRM_2_2 RETURN AIR NODE,Air,2
 Node,149,2_BDRM_2_3 ERV OUTLET AIR NODE,Air,3
 Node,150,2_BDRM_2_3 DIRECT AIR OUTLET AIR NODE,Air,3
 Node,151,2_BDRM_2_3 ERV INLET AIR NODE,Air,3
 Node,152,2_BDRM_2_3 RETURN AIR NODE,Air,2
 Node,153,2_BDRM_2_4 ERV OUTLET AIR NODE,Air,3
 Node,154,2_BDRM_2_4 DIRECT AIR OUTLET AIR NODE,Air,3
 Node,155,2_BDRM_2_4 ERV INLET AIR NODE,Air,3
 Node,156,2_BDRM_2_4 RETURN AIR NODE,Air,2
 Node,157,2_BDRM_3_2 ERV OUTLET AIR NODE,Air,3
 Node,158,2_BDRM_3_2 DIRECT AIR OUTLET AIR NODE,Air,3
 Node,159,2_BDRM_3_2 ERV INLET AIR NODE,Air,3
 Node,160,2_BDRM_3_2 RETURN AIR NODE,Air,2
 Node,161,2_BDRM_3_3 ERV OUTLET AIR NODE,Air,3
 Node,162,2_BDRM_3_3 DIRECT AIR OUTLET AIR NODE,Air,3
 Node,163,2_BDRM_3_3 ERV INLET AIR NODE,Air,3
 Node,164,2_BDRM_3_3 RETURN AIR NODE,Air,2
 Node,165,2_BDRM_3_4 ERV OUTLET AIR NODE,Air,3
 Node,166,2_BDRM_3_4 DIRECT AIR OUTLET AIR NODE,Air,3
 Node,167,2_BDRM_3_4 ERV INLET AIR NODE,Air,3
 Node,168,2_BDRM_3_4 RETURN AIR NODE,Air,2
 Node,169,3_BDRM_1_3 ERV OUTLET AIR NODE,Air,3
 Node,170,3_BDRM_1_3 DIRECT AIR OUTLET AIR NODE,Air,3
 Node,171,3_BDRM_1_3 ERV INLET AIR NODE,Air,3
 Node,172,3_BDRM_1_3 RETURN AIR NODE,Air,2
 Node,173,3_BDRM_1_4 ERV OUTLET AIR NODE,Air,3
 Node,174,3_BDRM_1_4 DIRECT AIR OUTLET AIR NODE,Air,3
 Node,175,3_BDRM_1_4 ERV INLET AIR NODE,Air,3
 Node,176,3_BDRM_1_4 RETURN AIR NODE,Air,2
 Node,177,3_BDRM_2_2 ERV OUTLET AIR NODE,Air,3
 Node,178,3_BDRM_2_2 DIRECT AIR OUTLET AIR NODE,Air,3
 Node,179,3_BDRM_2_2 ERV INLET AIR NODE,Air,3
 Node,180,3_BDRM_2_2 RETURN AIR NODE,Air,2
 Node,181,BATHRM_1 ERV OUTLET AIR NODE,Air,3
 Node,182,BATHRM_1 DIRECT AIR OUTLET AIR NODE,Air,3
 Node,183,BATHRM_1 ERV INLET AIR NODE,Air,3
 Node,184,BATHRM_1 RETURN AIR NODE,Air,2
 Node,185,BATHRM_2 ERV OUTLET AIR NODE,Air,3
 Node,186,BATHRM_2 DIRECT AIR OUTLET AIR NODE,Air,3
 Node,187,BATHRM_2 ERV INLET AIR NODE,Air,3
 Node,188,BATHRM_2 RETURN AIR NODE,Air,2
 Node,189,COFFEE_SHOP ERV OUTLET AIR NODE,Air,3
 Node,190,COFFEE_SHOP DIRECT AIR OUTLET AIR NODE,Air,3
 Node,191,COFFEE_SHOP ERV INLET AIR NODE,Air,3
 Node,192,COFFEE_SHOP RETURN AIR NODE,Air,2
 Node,193,COMMUNITY_RM ERV OUTLET AIR NODE,Air,3
 Node,194,COMMUNITY_RM DIRECT AIR OUTLET AIR NODE,Air,3
 Node,195,COMMUNITY_RM ERV INLET AIR NODE,Air,3
 Node,196,COMMUNITY_RM RETURN AIR NODE,Air,2
 Node,197,GYM 1 ERV OUTLET AIR NODE,Air,3
 Node,198,GYM 1 DIRECT AIR OUTLET AIR NODE,Air,3
 Node,199,GYM 1 ERV INLET AIR NODE,Air,3
 Node,200,GYM 1 RETURN AIR NODE,Air,2
 Node,201,LT_RETAIL_1 ERV OUTLET AIR NODE,Air,3
 Node,202,LT_RETAIL_1 DIRECT AIR OUTLET AIR NODE,Air,3
 Node,203,LT_RETAIL_1 ERV INLET AIR NODE,Air,3
 Node,204,LT_RETAIL_1 RETURN AIR NODE,Air,2
 Node,205,LT_RETAIL_2 ERV OUTLET AIR NODE,Air,3
 Node,206,LT_RETAIL_2 DIRECT AIR OUTLET AIR NODE,Air,3
 Node,207,LT_RETAIL_2 ERV INLET AIR NODE,Air,3
 Node,208,LT_RETAIL_2 RETURN AIR NODE,Air,2
 Node,209,LT_RETAIL_3 ERV OUTLET AIR NODE,Air,3
 Node,210,LT_RETAIL_3 DIRECT AIR OUTLET AIR NODE,Air,3
 Node,211,LT_RETAIL_3 ERV INLET AIR NODE,Air,3
 Node,212,LT_RETAIL_3 RETURN AIR NODE,Air,2
 Node,213,LT_RETAIL_4 ERV OUTLET AIR NODE,Air,3
 Node,214,LT_RETAIL_4 DIRECT AIR OUTLET AIR NODE,Air,3
 Node,215,LT_RETAIL_4 ERV INLET AIR NODE,Air,3
 Node,216,LT_RETAIL_4 RETURN AIR NODE,Air,2
 Node,217,OFFICE 1 ERV OUTLET AIR NODE,Air,3
 Node,218,OFFICE 1 DIRECT AIR OUTLET AIR NODE,Air,3
 Node,219,OFFICE 1 ERV INLET AIR NODE,Air,3
 Node,220,OFFICE 1 RETURN AIR NODE,Air,2
 Node,221,0_BDRM_1_2 CENTRAL AIR SOURCE HP SUPPLY OUTLET NODE,Air,4
 Node,222,0_BDRM_1_2 CENTRAL AIR SOURCE HP DEMAND INLET NODE,Air,3
 Node,223,0_BDRM_1_3 CENTRAL AIR SOURCE HP SUPPLY OUTLET NODE,Air,4
 Node,224,0_BDRM_1_3 CENTRAL AIR SOURCE HP DEMAND INLET NODE,Air,3
 Node,225,0_BDRM_1_4 CENTRAL AIR SOURCE HP SUPPLY OUTLET NODE,Air,4
 Node,226,0_BDRM_1_4 CENTRAL AIR SOURCE HP DEMAND INLET NODE,Air,3
 Node,227,0_BDRM_2_2 CENTRAL AIR SOURCE HP SUPPLY OUTLET NODE,Air,4
 Node,228,0_BDRM_2_2 CENTRAL AIR SOURCE HP DEMAND INLET NODE,Air,3
 Node,229,0_BDRM_2_3 CENTRAL AIR SOURCE HP SUPPLY OUTLET NODE,Air,4
 Node,230,0_BDRM_2_3 CENTRAL AIR SOURCE HP DEMAND INLET NODE,Air,3
 Node,231,0_BDRM_2_4 CENTRAL AIR SOURCE HP SUPPLY OUTLET NODE,Air,4
 Node,232,0_BDRM_2_4 CENTRAL AIR SOURCE HP DEMAND INLET NODE,Air,3
 Node,233,0_BDRM_3_2 CENTRAL AIR SOURCE HP SUPPLY OUTLET NODE,Air,4
 Node,234,0_BDRM_3_2 CENTRAL AIR SOURCE HP DEMAND INLET NODE,Air,3
 Node,235,0_BDRM_3_3 CENTRAL AIR SOURCE HP SUPPLY OUTLET NODE,Air,4
 Node,236,0_BDRM_3_3 CENTRAL AIR SOURCE HP DEMAND INLET NODE,Air,3
 Node,237,0_BDRM_3_4 CENTRAL AIR SOURCE HP SUPPLY OUTLET NODE,Air,4
 Node,238,0_BDRM_3_4 CENTRAL AIR SOURCE HP DEMAND INLET NODE,Air,3
 Node,239,0_BDRM_4_2 CENTRAL AIR SOURCE HP SUPPLY OUTLET NODE,Air,4
 Node,240,0_BDRM_4_2 CENTRAL AIR SOURCE HP DEMAND INLET NODE,Air,3
 Node,241,0_BDRM_4_3 CENTRAL AIR SOURCE HP SUPPLY OUTLET NODE,Air,4
 Node,242,0_BDRM_4_3 CENTRAL AIR SOURCE HP DEMAND INLET NODE,Air,3
 Node,243,0_BDRM_4_4 CENTRAL AIR SOURCE HP SUPPLY OUTLET NODE,Air,4
 Node,244,0_BDRM_4_4 CENTRAL AIR SOURCE HP DEMAND INLET NODE,Air,3
 Node,245,1_BDRM_1_2 CENTRAL AIR SOURCE HP SUPPLY OUTLET NODE,Air,4
 Node,246,1_BDRM_1_2 CENTRAL AIR SOURCE HP DEMAND INLET NODE,Air,3
 Node,247,1_BDRM_1_3 CENTRAL AIR SOURCE HP SUPPLY OUTLET NODE,Air,4
 Node,248,1_BDRM_1_3 CENTRAL AIR SOURCE HP DEMAND INLET NODE,Air,3
 Node,249,1_BDRM_1_4 CENTRAL AIR SOURCE HP SUPPLY OUTLET NODE,Air,4
 Node,250,1_BDRM_1_4 CENTRAL AIR SOURCE HP DEMAND INLET NODE,Air,3
 Node,251,1_BDRM_2_2 CENTRAL AIR SOURCE HP SUPPLY OUTLET NODE,Air,4
 Node,252,1_BDRM_2_2 CENTRAL AIR SOURCE HP DEMAND INLET NODE,Air,3
 Node,253,1_BDRM_2_3 CENTRAL AIR SOURCE HP SUPPLY OUTLET NODE,Air,4
 Node,254,1_BDRM_2_3 CENTRAL AIR SOURCE HP DEMAND INLET NODE,Air,3
 Node,255,1_BDRM_2_4 CENTRAL AIR SOURCE HP SUPPLY OUTLET NODE,Air,4
 Node,256,1_BDRM_2_4 CENTRAL AIR SOURCE HP DEMAND INLET NODE,Air,3
 Node,257,1_BDRM_3_2 CENTRAL AIR SOURCE HP SUPPLY OUTLET NODE,Air,4
 Node,258,1_BDRM_3_2 CENTRAL AIR SOURCE HP DEMAND INLET NODE,Air,3
 Node,259,1_BDRM_3_3 CENTRAL AIR SOURCE HP SUPPLY OUTLET NODE,Air,4
 Node,260,1_BDRM_3_3 CENTRAL AIR SOURCE HP DEMAND INLET NODE,Air,3
 Node,261,1_BDRM_3_4 CENTRAL AIR SOURCE HP SUPPLY OUTLET NODE,Air,4
 Node,262,1_BDRM_3_4 CENTRAL AIR SOURCE HP DEMAND INLET NODE,Air,3
 Node,263,1_BDRM_4_2 CENTRAL AIR SOURCE HP SUPPLY OUTLET NODE,Air,4
 Node,264,1_BDRM_4_2 CENTRAL AIR SOURCE HP DEMAND INLET NODE,Air,3
 Node,265,1_BDRM_4_3 CENTRAL AIR SOURCE HP SUPPLY OUTLET NODE,Air,4
 Node,266,1_BDRM_4_3 CENTRAL AIR SOURCE HP DEMAND INLET NODE,Air,3
 Node,267,1_BDRM_4_4 CENTRAL AIR SOURCE HP SUPPLY OUTLET NODE,Air,4
 Node,268,1_BDRM_4_4 CENTRAL AIR SOURCE HP DEMAND INLET NODE,Air,3
 Node,269,1_BDRM_5_2 CENTRAL AIR SOURCE HP SUPPLY OUTLET NODE,Air,4
 Node,270,1_BDRM_5_2 CENTRAL AIR SOURCE HP DEMAND INLET NODE,Air,3
 Node,271,1_BDRM_5_3 CENTRAL AIR SOURCE HP SUPPLY OUTLET NODE,Air,4
 Node,272,1_BDRM_5_3 CENTRAL AIR SOURCE HP DEMAND INLET NODE,Air,3
 Node,273,1_BDRM_5_4 CENTRAL AIR SOURCE HP SUPPLY OUTLET NODE,Air,4
 Node,274,1_BDRM_5_4 CENTRAL AIR SOURCE HP DEMAND INLET NODE,Air,3
 Node,275,1_BDRM_6_2 CENTRAL AIR SOURCE HP SUPPLY OUTLET NODE,Air,4
 Node,276,1_BDRM_6_2 CENTRAL AIR SOURCE HP DEMAND INLET NODE,Air,3
 Node,277,1_BDRM_6_3 CENTRAL AIR SOURCE HP SUPPLY OUTLET NODE,Air,4
 Node,278,1_BDRM_6_3 CENTRAL AIR SOURCE HP DEMAND INLET NODE,Air,3
 Node,279,1_BDRM_6_4 CENTRAL AIR SOURCE HP SUPPLY OUTLET NODE,Air,4
 Node,280,1_BDRM_6_4 CENTRAL AIR SOURCE HP DEMAND INLET NODE,Air,3
 Node,281,1_BDRM_7_2 CENTRAL AIR SOURCE HP SUPPLY OUTLET NODE,Air,4
 Node,282,1_BDRM_7_2 CENTRAL AIR SOURCE HP DEMAND INLET NODE,Air,3
 Node,283,1_BDRM_7_3 CENTRAL AIR SOURCE HP SUPPLY OUTLET NODE,Air,4
 Node,284,1_BDRM_7_3 CENTRAL AIR SOURCE HP DEMAND INLET NODE,Air,3
 Node,285,1_BDRM_7_4 CENTRAL AIR SOURCE HP SUPPLY OUTLET NODE,Air,4
 Node,286,1_BDRM_7_4 CENTRAL AIR SOURCE HP DEMAND INLET NODE,Air,3
 Node,287,2_BDRM_1_2 CENTRAL AIR SOURCE HP SUPPLY OUTLET NODE,Air,4
 Node,288,2_BDRM_1_2 CENTRAL AIR SOURCE HP DEMAND INLET NODE,Air,3
 Node,289,2_BDRM_1_3 CENTRAL AIR SOURCE HP SUPPLY OUTLET NODE,Air,4
 Node,290,2_BDRM_1_3 CENTRAL AIR SOURCE HP DEMAND INLET NODE,Air,3
 Node,291,2_BDRM_1_4 CENTRAL AIR SOURCE HP SUPPLY OUTLET NODE,Air,4
 Node,292,2_BDRM_1_4 CENTRAL AIR SOURCE HP DEMAND INLET NODE,Air,3
 Node,293,2_BDRM_2_2 CENTRAL AIR SOURCE HP SUPPLY OUTLET NODE,Air,4
 Node,294,2_BDRM_2_2 CENTRAL AIR SOURCE HP DEMAND INLET NODE,Air,3
 Node,295,2_BDRM_2_3 CENTRAL AIR SOURCE HP SUPPLY OUTLET NODE,Air,4
 Node,296,2_BDRM_2_3 CENTRAL AIR SOURCE HP DEMAND INLET NODE,Air,3
 Node,297,2_BDRM_2_4 CENTRAL AIR SOURCE HP SUPPLY OUTLET NODE,Air,4
 Node,298,2_BDRM_2_4 CENTRAL AIR SOURCE HP DEMAND INLET NODE,Air,3
 Node,299,2_BDRM_3_2 CENTRAL AIR SOURCE HP SUPPLY OUTLET NODE,Air,4
 Node,300,2_BDRM_3_2 CENTRAL AIR SOURCE HP DEMAND INLET NODE,Air,3
 Node,301,2_BDRM_3_3 CENTRAL AIR SOURCE HP SUPPLY OUTLET NODE,Air,4
 Node,302,2_BDRM_3_3 CENTRAL AIR SOURCE HP DEMAND INLET NODE,Air,3
 Node,303,2_BDRM_3_4 CENTRAL AIR SOURCE HP SUPPLY OUTLET NODE,Air,4
 Node,304,2_BDRM_3_4 CENTRAL AIR SOURCE HP DEMAND INLET NODE,Air,3
 Node,305,3_BDRM_1_3 CENTRAL AIR SOURCE HP SUPPLY OUTLET NODE,Air,4
 Node,306,3_BDRM_1_3 CENTRAL AIR SOURCE HP DEMAND INLET NODE,Air,3
 Node,307,3_BDRM_1_4 CENTRAL AIR SOURCE HP SUPPLY OUTLET NODE,Air,4
 Node,308,3_BDRM_1_4 CENTRAL AIR SOURCE HP DEMAND INLET NODE,Air,3
 Node,309,3_BDRM_2_2 CENTRAL AIR SOURCE HP SUPPLY OUTLET NODE,Air,4
 Node,310,3_BDRM_2_2 CENTRAL AIR SOURCE HP DEMAND INLET NODE,Air,3
 Node,311,BATHRM_1 CENTRAL AIR SOURCE HP SUPPLY OUTLET NODE,Air,4
 Node,312,BATHRM_1 CENTRAL AIR SOURCE HP DEMAND INLET NODE,Air,3
 Node,313,BATHRM_2 CENTRAL AIR SOURCE HP SUPPLY OUTLET NODE,Air,4
 Node,314,BATHRM_2 CENTRAL AIR SOURCE HP DEMAND INLET NODE,Air,3
 Node,315,COFFEE_SHOP CENTRAL AIR SOURCE HP SUPPLY OUTLET NODE,Air,4
 Node,316,COFFEE_SHOP CENTRAL AIR SOURCE HP DEMAND INLET NODE,Air,3
 Node,317,COMMUNITY_RM CENTRAL AIR SOURCE HP SUPPLY OUTLET NODE,Air,4
 Node,318,COMMUNITY_RM CENTRAL AIR SOURCE HP DEMAND INLET NODE,Air,3
 Node,319,GYM 1 CENTRAL AIR SOURCE HP SUPPLY OUTLET NODE,Air,4
 Node,320,GYM 1 CENTRAL AIR SOURCE HP DEMAND INLET NODE,Air,3
 Node,321,LT_RETAIL_1 CENTRAL AIR SOURCE HP SUPPLY OUTLET NODE,Air,4
 Node,322,LT_RETAIL_1 CENTRAL AIR SOURCE HP DEMAND INLET NODE,Air,3
 Node,323,LT_RETAIL_2 CENTRAL AIR SOURCE HP SUPPLY OUTLET NODE,Air,4
 Node,324,LT_RETAIL_2 CENTRAL AIR SOURCE HP DEMAND INLET NODE,Air,3
 Node,325,LT_RETAIL_3 CENTRAL AIR SOURCE HP SUPPLY OUTLET NODE,Air,4
 Node,326,LT_RETAIL_3 CENTRAL AIR SOURCE HP DEMAND INLET NODE,Air,3
 Node,327,LT_RETAIL_4 CENTRAL AIR SOURCE HP SUPPLY OUTLET NODE,Air,4
 Node,328,LT_RETAIL_4 CENTRAL AIR SOURCE HP DEMAND INLET NODE,Air,3
 Node,329,OFFICE 1 CENTRAL AIR SOURCE HP SUPPLY OUTLET NODE,Air,4
 Node,330,OFFICE 1 CENTRAL AIR SOURCE HP DEMAND INLET NODE,Air,3
 Node,331,0_BDRM_1_2 CENTRAL AIR SOURCE HP SUPPLY INLET NODE,Air,3
 Node,332,0_BDRM_1_3 CENTRAL AIR SOURCE HP SUPPLY INLET NODE,Air,3
 Node,333,0_BDRM_1_4 CENTRAL AIR SOURCE HP SUPPLY INLET NODE,Air,3
 Node,334,0_BDRM_2_2 CENTRAL AIR SOURCE HP SUPPLY INLET NODE,Air,3
 Node,335,0_BDRM_2_3 CENTRAL AIR SOURCE HP SUPPLY INLET NODE,Air,3
 Node,336,0_BDRM_2_4 CENTRAL AIR SOURCE HP SUPPLY INLET NODE,Air,3
 Node,337,0_BDRM_3_2 CENTRAL AIR SOURCE HP SUPPLY INLET NODE,Air,3
 Node,338,0_BDRM_3_3 CENTRAL AIR SOURCE HP SUPPLY INLET NODE,Air,3
 Node,339,0_BDRM_3_4 CENTRAL AIR SOURCE HP SUPPLY INLET NODE,Air,3
 Node,340,0_BDRM_4_2 CENTRAL AIR SOURCE HP SUPPLY INLET NODE,Air,3
 Node,341,0_BDRM_4_3 CENTRAL AIR SOURCE HP SUPPLY INLET NODE,Air,3
 Node,342,0_BDRM_4_4 CENTRAL AIR SOURCE HP SUPPLY INLET NODE,Air,3
 Node,343,1_BDRM_1_2 CENTRAL AIR SOURCE HP SUPPLY INLET NODE,Air,3
 Node,344,1_BDRM_1_3 CENTRAL AIR SOURCE HP SUPPLY INLET NODE,Air,3
 Node,345,1_BDRM_1_4 CENTRAL AIR SOURCE HP SUPPLY INLET NODE,Air,3
 Node,346,1_BDRM_2_2 CENTRAL AIR SOURCE HP SUPPLY INLET NODE,Air,3
 Node,347,1_BDRM_2_3 CENTRAL AIR SOURCE HP SUPPLY INLET NODE,Air,3
 Node,348,1_BDRM_2_4 CENTRAL AIR SOURCE HP SUPPLY INLET NODE,Air,3
 Node,349,1_BDRM_3_2 CENTRAL AIR SOURCE HP SUPPLY INLET NODE,Air,3
 Node,350,1_BDRM_3_3 CENTRAL AIR SOURCE HP SUPPLY INLET NODE,Air,3
 Node,351,1_BDRM_3_4 CENTRAL AIR SOURCE HP SUPPLY INLET NODE,Air,3
 Node,352,1_BDRM_4_2 CENTRAL AIR SOURCE HP SUPPLY INLET NODE,Air,3
 Node,353,1_BDRM_4_3 CENTRAL AIR SOURCE HP SUPPLY INLET NODE,Air,3
 Node,354,1_BDRM_4_4 CENTRAL AIR SOURCE HP SUPPLY INLET NODE,Air,3
 Node,355,1_BDRM_5_2 CENTRAL AIR SOURCE HP SUPPLY INLET NODE,Air,3
 Node,356,1_BDRM_5_3 CENTRAL AIR SOURCE HP SUPPLY INLET NODE,Air,3
 Node,357,1_BDRM_5_4 CENTRAL AIR SOURCE HP SUPPLY INLET NODE,Air,3
 Node,358,1_BDRM_6_2 CENTRAL AIR SOURCE HP SUPPLY INLET NODE,Air,3
 Node,359,1_BDRM_6_3 CENTRAL AIR SOURCE HP SUPPLY INLET NODE,Air,3
 Node,360,1_BDRM_6_4 CENTRAL AIR SOURCE HP SUPPLY INLET NODE,Air,3
 Node,361,1_BDRM_7_2 CENTRAL AIR SOURCE HP SUPPLY INLET NODE,Air,3
 Node,362,1_BDRM_7_3 CENTRAL AIR SOURCE HP SUPPLY INLET NODE,Air,3
 Node,363,1_BDRM_7_4 CENTRAL AIR SOURCE HP SUPPLY INLET NODE,Air,3
 Node,364,2_BDRM_1_2 CENTRAL AIR SOURCE HP SUPPLY INLET NODE,Air,3
 Node,365,2_BDRM_1_3 CENTRAL AIR SOURCE HP SUPPLY INLET NODE,Air,3
 Node,366,2_BDRM_1_4 CENTRAL AIR SOURCE HP SUPPLY INLET NODE,Air,3
 Node,367,2_BDRM_2_2 CENTRAL AIR SOURCE HP SUPPLY INLET NODE,Air,3
 Node,368,2_BDRM_2_3 CENTRAL AIR SOURCE HP SUPPLY INLET NODE,Air,3
 Node,369,2_BDRM_2_4 CENTRAL AIR SOURCE HP SUPPLY INLET NODE,Air,3
 Node,370,2_BDRM_3_2 CENTRAL AIR SOURCE HP SUPPLY INLET NODE,Air,3
 Node,371,2_BDRM_3_3 CENTRAL AIR SOURCE HP SUPPLY INLET NODE,Air,3
 Node,372,2_BDRM_3_4 CENTRAL AIR SOURCE HP SUPPLY INLET NODE,Air,3
 Node,373,3_BDRM_1_3 CENTRAL AIR SOURCE HP SUPPLY INLET NODE,Air,3
 Node,374,3_BDRM_1_4 CENTRAL AIR SOURCE HP SUPPLY INLET NODE,Air,3
 Node,375,3_BDRM_2_2 CENTRAL AIR SOURCE HP SUPPLY INLET NODE,Air,3
 Node,376,BATHRM_1 CENTRAL AIR SOURCE HP SUPPLY INLET NODE,Air,3
 Node,377,BATHRM_2 CENTRAL AIR SOURCE HP SUPPLY INLET NODE,Air,3
 Node,378,COFFEE_SHOP CENTRAL AIR SOURCE HP SUPPLY INLET NODE,Air,3
 Node,379,COMMUNITY_RM CENTRAL AIR SOURCE HP SUPPLY INLET NODE,Air,3
 Node,380,GYM 1 CENTRAL AIR SOURCE HP SUPPLY INLET NODE,Air,3
 Node,381,LT_RETAIL_1 CENTRAL AIR SOURCE HP SUPPLY INLET NODE,Air,3
 Node,382,LT_RETAIL_2 CENTRAL AIR SOURCE HP SUPPLY INLET NODE,Air,3
 Node,383,LT_RETAIL_3 CENTRAL AIR SOURCE HP SUPPLY INLET NODE,Air,3
 Node,384,LT_RETAIL_4 CENTRAL AIR SOURCE HP SUPPLY INLET NODE,Air,3
 Node,385,OFFICE 1 CENTRAL AIR SOURCE HP SUPPLY INLET NODE,Air,3
 Node,386,DOMESTIC HOT WATER LOOP|BUILDING UNIT 001 SUPPLY INLET NODE,Water,2
 Node,387,PUMP VARIABLE SPEED 1 OUTLET WATER NODE,Water,1
 Node,388,PIPE ADIABATIC 1 INLET WATER NODE,Water,1
 Node,389,PIPE ADIABATIC 1 OUTLET WATER NODE,Water,1
 Node,390,RES WH_BUILDING UNIT 001 TANK SUPPLY INLET WATER NODE,Water,2
 Node,391,RES WH_BUILDING UNIT 001 TANK SUPPLY OUTLET WATER NODE,Water,2
 Node,392,PIPE ADIABATIC 2 INLET WATER NODE,Water,1
 Node,393,DOMESTIC HOT WATER LOOP|BUILDING UNIT 001 SUPPLY OUTLET NODE,Water,4
 Node,394,DOMESTIC HOT WATER LOOP|BUILDING UNIT 001 DEMAND INLET NODE,Water,2
 Node,395,DOMESTIC HOT WATER LOOP|BUILDING UNIT 001 DEMAND INLET PIPE NODE,Water,1
 Node,396,WATER USE CONNECTIONS 1 INLET WATER NODE,Water,1
 Node,397,WATER USE CONNECTIONS 1 OUTLET WATER NODE,Water,1
 Node,398,DOMESTIC HOT WATER LOOP|BUILDING UNIT 001 DEMAND BYPASS PIPE INLET NODE,Water,1
 Node,399,DOMESTIC HOT WATER LOOP|BUILDING UNIT 001 DEMAND BYPASS PIPE OUTLET NODE,Water,1
 Node,400,DOMESTIC HOT WATER LOOP|BUILDING UNIT 001 DEMAND OUTLET PIPE NODE,Water,1
 Node,401,DOMESTIC HOT WATER LOOP|BUILDING UNIT 001 DEMAND OUTLET NODE,Water,2
 Node,402,DOMESTIC HOT WATER LOOP|BUILDING UNIT 002 SUPPLY INLET NODE,Water,2
 Node,403,PUMP VARIABLE SPEED 2 OUTLET WATER NODE,Water,1
 Node,404,PIPE ADIABATIC 3 INLET WATER NODE,Water,1
 Node,405,PIPE ADIABATIC 3 OUTLET WATER NODE,Water,1
 Node,406,RES WH_BUILDING UNIT 002 TANK SUPPLY INLET WATER NODE,Water,2
 Node,407,RES WH_BUILDING UNIT 002 TANK SUPPLY OUTLET WATER NODE,Water,2
 Node,408,PIPE ADIABATIC 4 INLET WATER NODE,Water,1
 Node,409,DOMESTIC HOT WATER LOOP|BUILDING UNIT 002 SUPPLY OUTLET NODE,Water,4
 Node,410,DOMESTIC HOT WATER LOOP|BUILDING UNIT 002 DEMAND INLET NODE,Water,2
 Node,411,DOMESTIC HOT WATER LOOP|BUILDING UNIT 002 DEMAND INLET PIPE NODE,Water,1
 Node,412,WATER USE CONNECTIONS 2 INLET WATER NODE,Water,1
 Node,413,WATER USE CONNECTIONS 2 OUTLET WATER NODE,Water,1
 Node,414,DOMESTIC HOT WATER LOOP|BUILDING UNIT 002 DEMAND BYPASS PIPE INLET NODE,Water,1
 Node,415,DOMESTIC HOT WATER LOOP|BUILDING UNIT 002 DEMAND BYPASS PIPE OUTLET NODE,Water,1
 Node,416,DOMESTIC HOT WATER LOOP|BUILDING UNIT 002 DEMAND OUTLET PIPE NODE,Water,1
 Node,417,DOMESTIC HOT WATER LOOP|BUILDING UNIT 002 DEMAND OUTLET NODE,Water,2
 Node,418,DOMESTIC HOT WATER LOOP|BUILDING UNIT 003 SUPPLY INLET NODE,Water,2
 Node,419,PUMP VARIABLE SPEED 3 OUTLET WATER NODE,Water,1
 Node,420,PIPE ADIABATIC 5 INLET WATER NODE,Water,1
 Node,421,PIPE ADIABATIC 5 OUTLET WATER NODE,Water,1
 Node,422,RES WH_BUILDING UNIT 003 TANK SUPPLY INLET WATER NODE,Water,2
 Node,423,RES WH_BUILDING UNIT 003 TANK SUPPLY OUTLET WATER NODE,Water,2
 Node,424,PIPE ADIABATIC 6 INLET WATER NODE,Water,1
 Node,425,DOMESTIC HOT WATER LOOP|BUILDING UNIT 003 SUPPLY OUTLET NODE,Water,4
 Node,426,DOMESTIC HOT WATER LOOP|BUILDING UNIT 003 DEMAND INLET NODE,Water,2
 Node,427,DOMESTIC HOT WATER LOOP|BUILDING UNIT 003 DEMAND INLET PIPE NODE,Water,1
 Node,428,WATER USE CONNECTIONS 3 INLET WATER NODE,Water,1
 Node,429,WATER USE CONNECTIONS 3 OUTLET WATER NODE,Water,1
 Node,430,DOMESTIC HOT WATER LOOP|BUILDING UNIT 003 DEMAND BYPASS PIPE INLET NODE,Water,1
 Node,431,DOMESTIC HOT WATER LOOP|BUILDING UNIT 003 DEMAND BYPASS PIPE OUTLET NODE,Water,1
 Node,432,DOMESTIC HOT WATER LOOP|BUILDING UNIT 003 DEMAND OUTLET PIPE NODE,Water,1
 Node,433,DOMESTIC HOT WATER LOOP|BUILDING UNIT 003 DEMAND OUTLET NODE,Water,2
 Node,434,DOMESTIC HOT WATER LOOP|BUILDING UNIT 004 SUPPLY INLET NODE,Water,2
 Node,435,PUMP VARIABLE SPEED 4 OUTLET WATER NODE,Water,1
 Node,436,PIPE ADIABATIC 7 INLET WATER NODE,Water,1
 Node,437,PIPE ADIABATIC 7 OUTLET WATER NODE,Water,1
 Node,438,RES WH_BUILDING UNIT 004 TANK SUPPLY INLET WATER NODE,Water,2
 Node,439,RES WH_BUILDING UNIT 004 TANK SUPPLY OUTLET WATER NODE,Water,2
 Node,440,PIPE ADIABATIC 8 INLET WATER NODE,Water,1
 Node,441,DOMESTIC HOT WATER LOOP|BUILDING UNIT 004 SUPPLY OUTLET NODE,Water,4
 Node,442,DOMESTIC HOT WATER LOOP|BUILDING UNIT 004 DEMAND INLET NODE,Water,2
 Node,443,DOMESTIC HOT WATER LOOP|BUILDING UNIT 004 DEMAND INLET PIPE NODE,Water,1
 Node,444,WATER USE CONNECTIONS 4 INLET WATER NODE,Water,1
 Node,445,WATER USE CONNECTIONS 4 OUTLET WATER NODE,Water,1
 Node,446,DOMESTIC HOT WATER LOOP|BUILDING UNIT 004 DEMAND BYPASS PIPE INLET NODE,Water,1
 Node,447,DOMESTIC HOT WATER LOOP|BUILDING UNIT 004 DEMAND BYPASS PIPE OUTLET NODE,Water,1
 Node,448,DOMESTIC HOT WATER LOOP|BUILDING UNIT 004 DEMAND OUTLET PIPE NODE,Water,1
 Node,449,DOMESTIC HOT WATER LOOP|BUILDING UNIT 004 DEMAND OUTLET NODE,Water,2
 Node,450,DOMESTIC HOT WATER LOOP|BUILDING UNIT 005 SUPPLY INLET NODE,Water,2
 Node,451,PUMP VARIABLE SPEED 5 OUTLET WATER NODE,Water,1
 Node,452,PIPE ADIABATIC 9 INLET WATER NODE,Water,1
 Node,453,PIPE ADIABATIC 9 OUTLET WATER NODE,Water,1
 Node,454,RES WH_BUILDING UNIT 005 TANK SUPPLY INLET WATER NODE,Water,2
 Node,455,RES WH_BUILDING UNIT 005 TANK SUPPLY OUTLET WATER NODE,Water,2
 Node,456,PIPE ADIABATIC 10 INLET WATER NODE,Water,1
 Node,457,DOMESTIC HOT WATER LOOP|BUILDING UNIT 005 SUPPLY OUTLET NODE,Water,4
 Node,458,DOMESTIC HOT WATER LOOP|BUILDING UNIT 005 DEMAND INLET NODE,Water,2
 Node,459,DOMESTIC HOT WATER LOOP|BUILDING UNIT 005 DEMAND INLET PIPE NODE,Water,1
 Node,460,WATER USE CONNECTIONS 5 INLET WATER NODE,Water,1
 Node,461,WATER USE CONNECTIONS 5 OUTLET WATER NODE,Water,1
 Node,462,DOMESTIC HOT WATER LOOP|BUILDING UNIT 005 DEMAND BYPASS PIPE INLET NODE,Water,1
 Node,463,DOMESTIC HOT WATER LOOP|BUILDING UNIT 005 DEMAND BYPASS PIPE OUTLET NODE,Water,1
 Node,464,DOMESTIC HOT WATER LOOP|BUILDING UNIT 005 DEMAND OUTLET PIPE NODE,Water,1
 Node,465,DOMESTIC HOT WATER LOOP|BUILDING UNIT 005 DEMAND OUTLET NODE,Water,2
 Node,466,DOMESTIC HOT WATER LOOP|BUILDING UNIT 006 SUPPLY INLET NODE,Water,2
 Node,467,PUMP VARIABLE SPEED 6 OUTLET WATER NODE,Water,1
 Node,468,PIPE ADIABATIC 11 INLET WATER NODE,Water,1
 Node,469,PIPE ADIABATIC 11 OUTLET WATER NODE,Water,1
 Node,470,RES WH_BUILDING UNIT 006 TANK SUPPLY INLET WATER NODE,Water,2
 Node,471,RES WH_BUILDING UNIT 006 TANK SUPPLY OUTLET WATER NODE,Water,2
 Node,472,PIPE ADIABATIC 12 INLET WATER NODE,Water,1
 Node,473,DOMESTIC HOT WATER LOOP|BUILDING UNIT 006 SUPPLY OUTLET NODE,Water,4
 Node,474,DOMESTIC HOT WATER LOOP|BUILDING UNIT 006 DEMAND INLET NODE,Water,2
 Node,475,DOMESTIC HOT WATER LOOP|BUILDING UNIT 006 DEMAND INLET PIPE NODE,Water,1
 Node,476,WATER USE CONNECTIONS 6 INLET WATER NODE,Water,1
 Node,477,WATER USE CONNECTIONS 6 OUTLET WATER NODE,Water,1
 Node,478,DOMESTIC HOT WATER LOOP|BUILDING UNIT 006 DEMAND BYPASS PIPE INLET NODE,Water,1
 Node,479,DOMESTIC HOT WATER LOOP|BUILDING UNIT 006 DEMAND BYPASS PIPE OUTLET NODE,Water,1
 Node,480,DOMESTIC HOT WATER LOOP|BUILDING UNIT 006 DEMAND OUTLET PIPE NODE,Water,1
 Node,481,DOMESTIC HOT WATER LOOP|BUILDING UNIT 006 DEMAND OUTLET NODE,Water,2
 Node,482,DOMESTIC HOT WATER LOOP|BUILDING UNIT 007 SUPPLY INLET NODE,Water,2
 Node,483,PUMP VARIABLE SPEED 7 OUTLET WATER NODE,Water,1
 Node,484,PIPE ADIABATIC 13 INLET WATER NODE,Water,1
 Node,485,PIPE ADIABATIC 13 OUTLET WATER NODE,Water,1
 Node,486,RES WH_BUILDING UNIT 007 TANK SUPPLY INLET WATER NODE,Water,2
 Node,487,RES WH_BUILDING UNIT 007 TANK SUPPLY OUTLET WATER NODE,Water,2
 Node,488,PIPE ADIABATIC 14 INLET WATER NODE,Water,1
 Node,489,DOMESTIC HOT WATER LOOP|BUILDING UNIT 007 SUPPLY OUTLET NODE,Water,4
 Node,490,DOMESTIC HOT WATER LOOP|BUILDING UNIT 007 DEMAND INLET NODE,Water,2
 Node,491,DOMESTIC HOT WATER LOOP|BUILDING UNIT 007 DEMAND INLET PIPE NODE,Water,1
 Node,492,WATER USE CONNECTIONS 7 INLET WATER NODE,Water,1
 Node,493,WATER USE CONNECTIONS 7 OUTLET WATER NODE,Water,1
 Node,494,DOMESTIC HOT WATER LOOP|BUILDING UNIT 007 DEMAND BYPASS PIPE INLET NODE,Water,1
 Node,495,DOMESTIC HOT WATER LOOP|BUILDING UNIT 007 DEMAND BYPASS PIPE OUTLET NODE,Water,1
 Node,496,DOMESTIC HOT WATER LOOP|BUILDING UNIT 007 DEMAND OUTLET PIPE NODE,Water,1
 Node,497,DOMESTIC HOT WATER LOOP|BUILDING UNIT 007 DEMAND OUTLET NODE,Water,2
 Node,498,DOMESTIC HOT WATER LOOP|BUILDING UNIT 008 SUPPLY INLET NODE,Water,2
 Node,499,PUMP VARIABLE SPEED 8 OUTLET WATER NODE,Water,1
 Node,500,PIPE ADIABATIC 15 INLET WATER NODE,Water,1
 Node,501,PIPE ADIABATIC 15 OUTLET WATER NODE,Water,1
 Node,502,RES WH_BUILDING UNIT 008 TANK SUPPLY INLET WATER NODE,Water,2
 Node,503,RES WH_BUILDING UNIT 008 TANK SUPPLY OUTLET WATER NODE,Water,2
 Node,504,PIPE ADIABATIC 16 INLET WATER NODE,Water,1
 Node,505,DOMESTIC HOT WATER LOOP|BUILDING UNIT 008 SUPPLY OUTLET NODE,Water,4
 Node,506,DOMESTIC HOT WATER LOOP|BUILDING UNIT 008 DEMAND INLET NODE,Water,2
 Node,507,DOMESTIC HOT WATER LOOP|BUILDING UNIT 008 DEMAND INLET PIPE NODE,Water,1
 Node,508,WATER USE CONNECTIONS 8 INLET WATER NODE,Water,1
 Node,509,WATER USE CONNECTIONS 8 OUTLET WATER NODE,Water,1
 Node,510,DOMESTIC HOT WATER LOOP|BUILDING UNIT 008 DEMAND BYPASS PIPE INLET NODE,Water,1
 Node,511,DOMESTIC HOT WATER LOOP|BUILDING UNIT 008 DEMAND BYPASS PIPE OUTLET NODE,Water,1
 Node,512,DOMESTIC HOT WATER LOOP|BUILDING UNIT 008 DEMAND OUTLET PIPE NODE,Water,1
 Node,513,DOMESTIC HOT WATER LOOP|BUILDING UNIT 008 DEMAND OUTLET NODE,Water,2
 Node,514,DOMESTIC HOT WATER LOOP|BUILDING UNIT 009 SUPPLY INLET NODE,Water,2
 Node,515,PUMP VARIABLE SPEED 9 OUTLET WATER NODE,Water,1
 Node,516,PIPE ADIABATIC 17 INLET WATER NODE,Water,1
 Node,517,PIPE ADIABATIC 17 OUTLET WATER NODE,Water,1
 Node,518,RES WH_BUILDING UNIT 009 TANK SUPPLY INLET WATER NODE,Water,2
 Node,519,RES WH_BUILDING UNIT 009 TANK SUPPLY OUTLET WATER NODE,Water,2
 Node,520,PIPE ADIABATIC 18 INLET WATER NODE,Water,1
 Node,521,DOMESTIC HOT WATER LOOP|BUILDING UNIT 009 SUPPLY OUTLET NODE,Water,4
 Node,522,DOMESTIC HOT WATER LOOP|BUILDING UNIT 009 DEMAND INLET NODE,Water,2
 Node,523,DOMESTIC HOT WATER LOOP|BUILDING UNIT 009 DEMAND INLET PIPE NODE,Water,1
 Node,524,WATER USE CONNECTIONS 9 INLET WATER NODE,Water,1
 Node,525,WATER USE CONNECTIONS 9 OUTLET WATER NODE,Water,1
 Node,526,DOMESTIC HOT WATER LOOP|BUILDING UNIT 009 DEMAND BYPASS PIPE INLET NODE,Water,1
 Node,527,DOMESTIC HOT WATER LOOP|BUILDING UNIT 009 DEMAND BYPASS PIPE OUTLET NODE,Water,1
 Node,528,DOMESTIC HOT WATER LOOP|BUILDING UNIT 009 DEMAND OUTLET PIPE NODE,Water,1
 Node,529,DOMESTIC HOT WATER LOOP|BUILDING UNIT 009 DEMAND OUTLET NODE,Water,2
 Node,530,DOMESTIC HOT WATER LOOP|BUILDING UNIT 010 SUPPLY INLET NODE,Water,2
 Node,531,PUMP VARIABLE SPEED 10 OUTLET WATER NODE,Water,1
 Node,532,PIPE ADIABATIC 19 INLET WATER NODE,Water,1
 Node,533,PIPE ADIABATIC 19 OUTLET WATER NODE,Water,1
 Node,534,RES WH_BUILDING UNIT 010 TANK SUPPLY INLET WATER NODE,Water,2
 Node,535,RES WH_BUILDING UNIT 010 TANK SUPPLY OUTLET WATER NODE,Water,2
 Node,536,PIPE ADIABATIC 20 INLET WATER NODE,Water,1
 Node,537,DOMESTIC HOT WATER LOOP|BUILDING UNIT 010 SUPPLY OUTLET NODE,Water,4
 Node,538,DOMESTIC HOT WATER LOOP|BUILDING UNIT 010 DEMAND INLET NODE,Water,2
 Node,539,DOMESTIC HOT WATER LOOP|BUILDING UNIT 010 DEMAND INLET PIPE NODE,Water,1
 Node,540,WATER USE CONNECTIONS 10 INLET WATER NODE,Water,1
 Node,541,WATER USE CONNECTIONS 10 OUTLET WATER NODE,Water,1
 Node,542,DOMESTIC HOT WATER LOOP|BUILDING UNIT 010 DEMAND BYPASS PIPE INLET NODE,Water,1
 Node,543,DOMESTIC HOT WATER LOOP|BUILDING UNIT 010 DEMAND BYPASS PIPE OUTLET NODE,Water,1
 Node,544,DOMESTIC HOT WATER LOOP|BUILDING UNIT 010 DEMAND OUTLET PIPE NODE,Water,1
 Node,545,DOMESTIC HOT WATER LOOP|BUILDING UNIT 010 DEMAND OUTLET NODE,Water,2
 Node,546,DOMESTIC HOT WATER LOOP|BUILDING UNIT 011 SUPPLY INLET NODE,Water,2
 Node,547,PUMP VARIABLE SPEED 11 OUTLET WATER NODE,Water,1
 Node,548,PIPE ADIABATIC 21 INLET WATER NODE,Water,1
 Node,549,PIPE ADIABATIC 21 OUTLET WATER NODE,Water,1
 Node,550,RES WH_BUILDING UNIT 011 TANK SUPPLY INLET WATER NODE,Water,2
 Node,551,RES WH_BUILDING UNIT 011 TANK SUPPLY OUTLET WATER NODE,Water,2
 Node,552,PIPE ADIABATIC 22 INLET WATER NODE,Water,1
 Node,553,DOMESTIC HOT WATER LOOP|BUILDING UNIT 011 SUPPLY OUTLET NODE,Water,4
 Node,554,DOMESTIC HOT WATER LOOP|BUILDING UNIT 011 DEMAND INLET NODE,Water,2
 Node,555,DOMESTIC HOT WATER LOOP|BUILDING UNIT 011 DEMAND INLET PIPE NODE,Water,1
 Node,556,WATER USE CONNECTIONS 11 INLET WATER NODE,Water,1
 Node,557,WATER USE CONNECTIONS 11 OUTLET WATER NODE,Water,1
 Node,558,DOMESTIC HOT WATER LOOP|BUILDING UNIT 011 DEMAND BYPASS PIPE INLET NODE,Water,1
 Node,559,DOMESTIC HOT WATER LOOP|BUILDING UNIT 011 DEMAND BYPASS PIPE OUTLET NODE,Water,1
 Node,560,DOMESTIC HOT WATER LOOP|BUILDING UNIT 011 DEMAND OUTLET PIPE NODE,Water,1
 Node,561,DOMESTIC HOT WATER LOOP|BUILDING UNIT 011 DEMAND OUTLET NODE,Water,2
 Node,562,DOMESTIC HOT WATER LOOP|BUILDING UNIT 012 SUPPLY INLET NODE,Water,2
 Node,563,PUMP VARIABLE SPEED 12 OUTLET WATER NODE,Water,1
 Node,564,PIPE ADIABATIC 23 INLET WATER NODE,Water,1
 Node,565,PIPE ADIABATIC 23 OUTLET WATER NODE,Water,1
 Node,566,RES WH_BUILDING UNIT 012 TANK SUPPLY INLET WATER NODE,Water,2
 Node,567,RES WH_BUILDING UNIT 012 TANK SUPPLY OUTLET WATER NODE,Water,2
 Node,568,PIPE ADIABATIC 24 INLET WATER NODE,Water,1
 Node,569,DOMESTIC HOT WATER LOOP|BUILDING UNIT 012 SUPPLY OUTLET NODE,Water,4
 Node,570,DOMESTIC HOT WATER LOOP|BUILDING UNIT 012 DEMAND INLET NODE,Water,2
 Node,571,DOMESTIC HOT WATER LOOP|BUILDING UNIT 012 DEMAND INLET PIPE NODE,Water,1
 Node,572,WATER USE CONNECTIONS 12 INLET WATER NODE,Water,1
 Node,573,WATER USE CONNECTIONS 12 OUTLET WATER NODE,Water,1
 Node,574,DOMESTIC HOT WATER LOOP|BUILDING UNIT 012 DEMAND BYPASS PIPE INLET NODE,Water,1
 Node,575,DOMESTIC HOT WATER LOOP|BUILDING UNIT 012 DEMAND BYPASS PIPE OUTLET NODE,Water,1
 Node,576,DOMESTIC HOT WATER LOOP|BUILDING UNIT 012 DEMAND OUTLET PIPE NODE,Water,1
 Node,577,DOMESTIC HOT WATER LOOP|BUILDING UNIT 012 DEMAND OUTLET NODE,Water,2
 Node,578,DOMESTIC HOT WATER LOOP|BUILDING UNIT 101 SUPPLY INLET NODE,Water,2
 Node,579,PUMP VARIABLE SPEED 13 OUTLET WATER NODE,Water,1
 Node,580,PIPE ADIABATIC 25 INLET WATER NODE,Water,1
 Node,581,PIPE ADIABATIC 25 OUTLET WATER NODE,Water,1
 Node,582,RES WH_BUILDING UNIT 101 TANK SUPPLY INLET WATER NODE,Water,2
 Node,583,RES WH_BUILDING UNIT 101 TANK SUPPLY OUTLET WATER NODE,Water,2
 Node,584,PIPE ADIABATIC 26 INLET WATER NODE,Water,1
 Node,585,DOMESTIC HOT WATER LOOP|BUILDING UNIT 101 SUPPLY OUTLET NODE,Water,4
 Node,586,DOMESTIC HOT WATER LOOP|BUILDING UNIT 101 DEMAND INLET NODE,Water,2
 Node,587,DOMESTIC HOT WATER LOOP|BUILDING UNIT 101 DEMAND INLET PIPE NODE,Water,1
 Node,588,WATER USE CONNECTIONS 13 INLET WATER NODE,Water,1
 Node,589,WATER USE CONNECTIONS 13 OUTLET WATER NODE,Water,1
 Node,590,DOMESTIC HOT WATER LOOP|BUILDING UNIT 101 DEMAND BYPASS PIPE INLET NODE,Water,1
 Node,591,DOMESTIC HOT WATER LOOP|BUILDING UNIT 101 DEMAND BYPASS PIPE OUTLET NODE,Water,1
 Node,592,DOMESTIC HOT WATER LOOP|BUILDING UNIT 101 DEMAND OUTLET PIPE NODE,Water,1
 Node,593,DOMESTIC HOT WATER LOOP|BUILDING UNIT 101 DEMAND OUTLET NODE,Water,2
 Node,594,DOMESTIC HOT WATER LOOP|BUILDING UNIT 102 SUPPLY INLET NODE,Water,2
 Node,595,PUMP VARIABLE SPEED 14 OUTLET WATER NODE,Water,1
 Node,596,PIPE ADIABATIC 27 INLET WATER NODE,Water,1
 Node,597,PIPE ADIABATIC 27 OUTLET WATER NODE,Water,1
 Node,598,RES WH_BUILDING UNIT 102 TANK SUPPLY INLET WATER NODE,Water,2
 Node,599,RES WH_BUILDING UNIT 102 TANK SUPPLY OUTLET WATER NODE,Water,2
 Node,600,PIPE ADIABATIC 28 INLET WATER NODE,Water,1
 Node,601,DOMESTIC HOT WATER LOOP|BUILDING UNIT 102 SUPPLY OUTLET NODE,Water,4
 Node,602,DOMESTIC HOT WATER LOOP|BUILDING UNIT 102 DEMAND INLET NODE,Water,2
 Node,603,DOMESTIC HOT WATER LOOP|BUILDING UNIT 102 DEMAND INLET PIPE NODE,Water,1
 Node,604,WATER USE CONNECTIONS 14 INLET WATER NODE,Water,1
 Node,605,WATER USE CONNECTIONS 14 OUTLET WATER NODE,Water,1
 Node,606,DOMESTIC HOT WATER LOOP|BUILDING UNIT 102 DEMAND BYPASS PIPE INLET NODE,Water,1
 Node,607,DOMESTIC HOT WATER LOOP|BUILDING UNIT 102 DEMAND BYPASS PIPE OUTLET NODE,Water,1
 Node,608,DOMESTIC HOT WATER LOOP|BUILDING UNIT 102 DEMAND OUTLET PIPE NODE,Water,1
 Node,609,DOMESTIC HOT WATER LOOP|BUILDING UNIT 102 DEMAND OUTLET NODE,Water,2
 Node,610,DOMESTIC HOT WATER LOOP|BUILDING UNIT 103 SUPPLY INLET NODE,Water,2
 Node,611,PUMP VARIABLE SPEED 15 OUTLET WATER NODE,Water,1
 Node,612,PIPE ADIABATIC 29 INLET WATER NODE,Water,1
 Node,613,PIPE ADIABATIC 29 OUTLET WATER NODE,Water,1
 Node,614,RES WH_BUILDING UNIT 103 TANK SUPPLY INLET WATER NODE,Water,2
 Node,615,RES WH_BUILDING UNIT 103 TANK SUPPLY OUTLET WATER NODE,Water,2
 Node,616,PIPE ADIABATIC 30 INLET WATER NODE,Water,1
 Node,617,DOMESTIC HOT WATER LOOP|BUILDING UNIT 103 SUPPLY OUTLET NODE,Water,4
 Node,618,DOMESTIC HOT WATER LOOP|BUILDING UNIT 103 DEMAND INLET NODE,Water,2
 Node,619,DOMESTIC HOT WATER LOOP|BUILDING UNIT 103 DEMAND INLET PIPE NODE,Water,1
 Node,620,WATER USE CONNECTIONS 15 INLET WATER NODE,Water,1
 Node,621,WATER USE CONNECTIONS 15 OUTLET WATER NODE,Water,1
 Node,622,DOMESTIC HOT WATER LOOP|BUILDING UNIT 103 DEMAND BYPASS PIPE INLET NODE,Water,1
 Node,623,DOMESTIC HOT WATER LOOP|BUILDING UNIT 103 DEMAND BYPASS PIPE OUTLET NODE,Water,1
 Node,624,DOMESTIC HOT WATER LOOP|BUILDING UNIT 103 DEMAND OUTLET PIPE NODE,Water,1
 Node,625,DOMESTIC HOT WATER LOOP|BUILDING UNIT 103 DEMAND OUTLET NODE,Water,2
 Node,626,DOMESTIC HOT WATER LOOP|BUILDING UNIT 104 SUPPLY INLET NODE,Water,2
 Node,627,PUMP VARIABLE SPEED 16 OUTLET WATER NODE,Water,1
 Node,628,PIPE ADIABATIC 31 INLET WATER NODE,Water,1
 Node,629,PIPE ADIABATIC 31 OUTLET WATER NODE,Water,1
 Node,630,RES WH_BUILDING UNIT 104 TANK SUPPLY INLET WATER NODE,Water,2
 Node,631,RES WH_BUILDING UNIT 104 TANK SUPPLY OUTLET WATER NODE,Water,2
 Node,632,PIPE ADIABATIC 32 INLET WATER NODE,Water,1
 Node,633,DOMESTIC HOT WATER LOOP|BUILDING UNIT 104 SUPPLY OUTLET NODE,Water,4
 Node,634,DOMESTIC HOT WATER LOOP|BUILDING UNIT 104 DEMAND INLET NODE,Water,2
 Node,635,DOMESTIC HOT WATER LOOP|BUILDING UNIT 104 DEMAND INLET PIPE NODE,Water,1
 Node,636,WATER USE CONNECTIONS 16 INLET WATER NODE,Water,1
 Node,637,WATER USE CONNECTIONS 16 OUTLET WATER NODE,Water,1
 Node,638,DOMESTIC HOT WATER LOOP|BUILDING UNIT 104 DEMAND BYPASS PIPE INLET NODE,Water,1
 Node,639,DOMESTIC HOT WATER LOOP|BUILDING UNIT 104 DEMAND BYPASS PIPE OUTLET NODE,Water,1
 Node,640,DOMESTIC HOT WATER LOOP|BUILDING UNIT 104 DEMAND OUTLET PIPE NODE,Water,1
 Node,641,DOMESTIC HOT WATER LOOP|BUILDING UNIT 104 DEMAND OUTLET NODE,Water,2
 Node,642,DOMESTIC HOT WATER LOOP|BUILDING UNIT 105 SUPPLY INLET NODE,Water,2
 Node,643,PUMP VARIABLE SPEED 17 OUTLET WATER NODE,Water,1
 Node,644,PIPE ADIABATIC 33 INLET WATER NODE,Water,1
 Node,645,PIPE ADIABATIC 33 OUTLET WATER NODE,Water,1
 Node,646,RES WH_BUILDING UNIT 105 TANK SUPPLY INLET WATER NODE,Water,2
 Node,647,RES WH_BUILDING UNIT 105 TANK SUPPLY OUTLET WATER NODE,Water,2
 Node,648,PIPE ADIABATIC 34 INLET WATER NODE,Water,1
 Node,649,DOMESTIC HOT WATER LOOP|BUILDING UNIT 105 SUPPLY OUTLET NODE,Water,4
 Node,650,DOMESTIC HOT WATER LOOP|BUILDING UNIT 105 DEMAND INLET NODE,Water,2
 Node,651,DOMESTIC HOT WATER LOOP|BUILDING UNIT 105 DEMAND INLET PIPE NODE,Water,1
 Node,652,WATER USE CONNECTIONS 17 INLET WATER NODE,Water,1
 Node,653,WATER USE CONNECTIONS 17 OUTLET WATER NODE,Water,1
 Node,654,DOMESTIC HOT WATER LOOP|BUILDING UNIT 105 DEMAND BYPASS PIPE INLET NODE,Water,1
 Node,655,DOMESTIC HOT WATER LOOP|BUILDING UNIT 105 DEMAND BYPASS PIPE OUTLET NODE,Water,1
 Node,656,DOMESTIC HOT WATER LOOP|BUILDING UNIT 105 DEMAND OUTLET PIPE NODE,Water,1
 Node,657,DOMESTIC HOT WATER LOOP|BUILDING UNIT 105 DEMAND OUTLET NODE,Water,2
 Node,658,DOMESTIC HOT WATER LOOP|BUILDING UNIT 106 SUPPLY INLET NODE,Water,2
 Node,659,PUMP VARIABLE SPEED 18 OUTLET WATER NODE,Water,1
 Node,660,PIPE ADIABATIC 35 INLET WATER NODE,Water,1
 Node,661,PIPE ADIABATIC 35 OUTLET WATER NODE,Water,1
 Node,662,RES WH_BUILDING UNIT 106 TANK SUPPLY INLET WATER NODE,Water,2
 Node,663,RES WH_BUILDING UNIT 106 TANK SUPPLY OUTLET WATER NODE,Water,2
 Node,664,PIPE ADIABATIC 36 INLET WATER NODE,Water,1
 Node,665,DOMESTIC HOT WATER LOOP|BUILDING UNIT 106 SUPPLY OUTLET NODE,Water,4
 Node,666,DOMESTIC HOT WATER LOOP|BUILDING UNIT 106 DEMAND INLET NODE,Water,2
 Node,667,DOMESTIC HOT WATER LOOP|BUILDING UNIT 106 DEMAND INLET PIPE NODE,Water,1
 Node,668,WATER USE CONNECTIONS 18 INLET WATER NODE,Water,1
 Node,669,WATER USE CONNECTIONS 18 OUTLET WATER NODE,Water,1
 Node,670,DOMESTIC HOT WATER LOOP|BUILDING UNIT 106 DEMAND BYPASS PIPE INLET NODE,Water,1
 Node,671,DOMESTIC HOT WATER LOOP|BUILDING UNIT 106 DEMAND BYPASS PIPE OUTLET NODE,Water,1
 Node,672,DOMESTIC HOT WATER LOOP|BUILDING UNIT 106 DEMAND OUTLET PIPE NODE,Water,1
 Node,673,DOMESTIC HOT WATER LOOP|BUILDING UNIT 106 DEMAND OUTLET NODE,Water,2
 Node,674,DOMESTIC HOT WATER LOOP|BUILDING UNIT 107 SUPPLY INLET NODE,Water,2
 Node,675,PUMP VARIABLE SPEED 19 OUTLET WATER NODE,Water,1
 Node,676,PIPE ADIABATIC 37 INLET WATER NODE,Water,1
 Node,677,PIPE ADIABATIC 37 OUTLET WATER NODE,Water,1
 Node,678,RES WH_BUILDING UNIT 107 TANK SUPPLY INLET WATER NODE,Water,2
 Node,679,RES WH_BUILDING UNIT 107 TANK SUPPLY OUTLET WATER NODE,Water,2
 Node,680,PIPE ADIABATIC 38 INLET WATER NODE,Water,1
 Node,681,DOMESTIC HOT WATER LOOP|BUILDING UNIT 107 SUPPLY OUTLET NODE,Water,4
 Node,682,DOMESTIC HOT WATER LOOP|BUILDING UNIT 107 DEMAND INLET NODE,Water,2
 Node,683,DOMESTIC HOT WATER LOOP|BUILDING UNIT 107 DEMAND INLET PIPE NODE,Water,1
 Node,684,WATER USE CONNECTIONS 19 INLET WATER NODE,Water,1
 Node,685,WATER USE CONNECTIONS 19 OUTLET WATER NODE,Water,1
 Node,686,DOMESTIC HOT WATER LOOP|BUILDING UNIT 107 DEMAND BYPASS PIPE INLET NODE,Water,1
 Node,687,DOMESTIC HOT WATER LOOP|BUILDING UNIT 107 DEMAND BYPASS PIPE OUTLET NODE,Water,1
 Node,688,DOMESTIC HOT WATER LOOP|BUILDING UNIT 107 DEMAND OUTLET PIPE NODE,Water,1
 Node,689,DOMESTIC HOT WATER LOOP|BUILDING UNIT 107 DEMAND OUTLET NODE,Water,2
 Node,690,DOMESTIC HOT WATER LOOP|BUILDING UNIT 108 SUPPLY INLET NODE,Water,2
 Node,691,PUMP VARIABLE SPEED 20 OUTLET WATER NODE,Water,1
 Node,692,PIPE ADIABATIC 39 INLET WATER NODE,Water,1
 Node,693,PIPE ADIABATIC 39 OUTLET WATER NODE,Water,1
 Node,694,RES WH_BUILDING UNIT 108 TANK SUPPLY INLET WATER NODE,Water,2
 Node,695,RES WH_BUILDING UNIT 108 TANK SUPPLY OUTLET WATER NODE,Water,2
 Node,696,PIPE ADIABATIC 40 INLET WATER NODE,Water,1
 Node,697,DOMESTIC HOT WATER LOOP|BUILDING UNIT 108 SUPPLY OUTLET NODE,Water,4
 Node,698,DOMESTIC HOT WATER LOOP|BUILDING UNIT 108 DEMAND INLET NODE,Water,2
 Node,699,DOMESTIC HOT WATER LOOP|BUILDING UNIT 108 DEMAND INLET PIPE NODE,Water,1
 Node,700,WATER USE CONNECTIONS 20 INLET WATER NODE,Water,1
 Node,701,WATER USE CONNECTIONS 20 OUTLET WATER NODE,Water,1
 Node,702,DOMESTIC HOT WATER LOOP|BUILDING UNIT 108 DEMAND BYPASS PIPE INLET NODE,Water,1
 Node,703,DOMESTIC HOT WATER LOOP|BUILDING UNIT 108 DEMAND BYPASS PIPE OUTLET NODE,Water,1
 Node,704,DOMESTIC HOT WATER LOOP|BUILDING UNIT 108 DEMAND OUTLET PIPE NODE,Water,1
 Node,705,DOMESTIC HOT WATER LOOP|BUILDING UNIT 108 DEMAND OUTLET NODE,Water,2
 Node,706,DOMESTIC HOT WATER LOOP|BUILDING UNIT 109 SUPPLY INLET NODE,Water,2
 Node,707,PUMP VARIABLE SPEED 21 OUTLET WATER NODE,Water,1
 Node,708,PIPE ADIABATIC 41 INLET WATER NODE,Water,1
 Node,709,PIPE ADIABATIC 41 OUTLET WATER NODE,Water,1
 Node,710,RES WH_BUILDING UNIT 109 TANK SUPPLY INLET WATER NODE,Water,2
 Node,711,RES WH_BUILDING UNIT 109 TANK SUPPLY OUTLET WATER NODE,Water,2
 Node,712,PIPE ADIABATIC 42 INLET WATER NODE,Water,1
 Node,713,DOMESTIC HOT WATER LOOP|BUILDING UNIT 109 SUPPLY OUTLET NODE,Water,4
 Node,714,DOMESTIC HOT WATER LOOP|BUILDING UNIT 109 DEMAND INLET NODE,Water,2
 Node,715,DOMESTIC HOT WATER LOOP|BUILDING UNIT 109 DEMAND INLET PIPE NODE,Water,1
 Node,716,WATER USE CONNECTIONS 21 INLET WATER NODE,Water,1
 Node,717,WATER USE CONNECTIONS 21 OUTLET WATER NODE,Water,1
 Node,718,DOMESTIC HOT WATER LOOP|BUILDING UNIT 109 DEMAND BYPASS PIPE INLET NODE,Water,1
 Node,719,DOMESTIC HOT WATER LOOP|BUILDING UNIT 109 DEMAND BYPASS PIPE OUTLET NODE,Water,1
 Node,720,DOMESTIC HOT WATER LOOP|BUILDING UNIT 109 DEMAND OUTLET PIPE NODE,Water,1
 Node,721,DOMESTIC HOT WATER LOOP|BUILDING UNIT 109 DEMAND OUTLET NODE,Water,2
 Node,722,DOMESTIC HOT WATER LOOP|BUILDING UNIT 110 SUPPLY INLET NODE,Water,2
 Node,723,PUMP VARIABLE SPEED 22 OUTLET WATER NODE,Water,1
 Node,724,PIPE ADIABATIC 43 INLET WATER NODE,Water,1
 Node,725,PIPE ADIABATIC 43 OUTLET WATER NODE,Water,1
 Node,726,RES WH_BUILDING UNIT 110 TANK SUPPLY INLET WATER NODE,Water,2
 Node,727,RES WH_BUILDING UNIT 110 TANK SUPPLY OUTLET WATER NODE,Water,2
 Node,728,PIPE ADIABATIC 44 INLET WATER NODE,Water,1
 Node,729,DOMESTIC HOT WATER LOOP|BUILDING UNIT 110 SUPPLY OUTLET NODE,Water,4
 Node,730,DOMESTIC HOT WATER LOOP|BUILDING UNIT 110 DEMAND INLET NODE,Water,2
 Node,731,DOMESTIC HOT WATER LOOP|BUILDING UNIT 110 DEMAND INLET PIPE NODE,Water,1
 Node,732,WATER USE CONNECTIONS 22 INLET WATER NODE,Water,1
 Node,733,WATER USE CONNECTIONS 22 OUTLET WATER NODE,Water,1
 Node,734,DOMESTIC HOT WATER LOOP|BUILDING UNIT 110 DEMAND BYPASS PIPE INLET NODE,Water,1
 Node,735,DOMESTIC HOT WATER LOOP|BUILDING UNIT 110 DEMAND BYPASS PIPE OUTLET NODE,Water,1
 Node,736,DOMESTIC HOT WATER LOOP|BUILDING UNIT 110 DEMAND OUTLET PIPE NODE,Water,1
 Node,737,DOMESTIC HOT WATER LOOP|BUILDING UNIT 110 DEMAND OUTLET NODE,Water,2
 Node,738,DOMESTIC HOT WATER LOOP|BUILDING UNIT 111 SUPPLY INLET NODE,Water,2
 Node,739,PUMP VARIABLE SPEED 23 OUTLET WATER NODE,Water,1
 Node,740,PIPE ADIABATIC 45 INLET WATER NODE,Water,1
 Node,741,PIPE ADIABATIC 45 OUTLET WATER NODE,Water,1
 Node,742,RES WH_BUILDING UNIT 111 TANK SUPPLY INLET WATER NODE,Water,2
 Node,743,RES WH_BUILDING UNIT 111 TANK SUPPLY OUTLET WATER NODE,Water,2
 Node,744,PIPE ADIABATIC 46 INLET WATER NODE,Water,1
 Node,745,DOMESTIC HOT WATER LOOP|BUILDING UNIT 111 SUPPLY OUTLET NODE,Water,4
 Node,746,DOMESTIC HOT WATER LOOP|BUILDING UNIT 111 DEMAND INLET NODE,Water,2
 Node,747,DOMESTIC HOT WATER LOOP|BUILDING UNIT 111 DEMAND INLET PIPE NODE,Water,1
 Node,748,WATER USE CONNECTIONS 23 INLET WATER NODE,Water,1
 Node,749,WATER USE CONNECTIONS 23 OUTLET WATER NODE,Water,1
 Node,750,DOMESTIC HOT WATER LOOP|BUILDING UNIT 111 DEMAND BYPASS PIPE INLET NODE,Water,1
 Node,751,DOMESTIC HOT WATER LOOP|BUILDING UNIT 111 DEMAND BYPASS PIPE OUTLET NODE,Water,1
 Node,752,DOMESTIC HOT WATER LOOP|BUILDING UNIT 111 DEMAND OUTLET PIPE NODE,Water,1
 Node,753,DOMESTIC HOT WATER LOOP|BUILDING UNIT 111 DEMAND OUTLET NODE,Water,2
 Node,754,DOMESTIC HOT WATER LOOP|BUILDING UNIT 112 SUPPLY INLET NODE,Water,2
 Node,755,PUMP VARIABLE SPEED 24 OUTLET WATER NODE,Water,1
 Node,756,PIPE ADIABATIC 47 INLET WATER NODE,Water,1
 Node,757,PIPE ADIABATIC 47 OUTLET WATER NODE,Water,1
 Node,758,RES WH_BUILDING UNIT 112 TANK SUPPLY INLET WATER NODE,Water,2
 Node,759,RES WH_BUILDING UNIT 112 TANK SUPPLY OUTLET WATER NODE,Water,2
 Node,760,PIPE ADIABATIC 48 INLET WATER NODE,Water,1
 Node,761,DOMESTIC HOT WATER LOOP|BUILDING UNIT 112 SUPPLY OUTLET NODE,Water,4
 Node,762,DOMESTIC HOT WATER LOOP|BUILDING UNIT 112 DEMAND INLET NODE,Water,2
 Node,763,DOMESTIC HOT WATER LOOP|BUILDING UNIT 112 DEMAND INLET PIPE NODE,Water,1
 Node,764,WATER USE CONNECTIONS 24 INLET WATER NODE,Water,1
 Node,765,WATER USE CONNECTIONS 24 OUTLET WATER NODE,Water,1
 Node,766,DOMESTIC HOT WATER LOOP|BUILDING UNIT 112 DEMAND BYPASS PIPE INLET NODE,Water,1
 Node,767,DOMESTIC HOT WATER LOOP|BUILDING UNIT 112 DEMAND BYPASS PIPE OUTLET NODE,Water,1
 Node,768,DOMESTIC HOT WATER LOOP|BUILDING UNIT 112 DEMAND OUTLET PIPE NODE,Water,1
 Node,769,DOMESTIC HOT WATER LOOP|BUILDING UNIT 112 DEMAND OUTLET NODE,Water,2
 Node,770,DOMESTIC HOT WATER LOOP|BUILDING UNIT 113 SUPPLY INLET NODE,Water,2
 Node,771,PUMP VARIABLE SPEED 25 OUTLET WATER NODE,Water,1
 Node,772,PIPE ADIABATIC 49 INLET WATER NODE,Water,1
 Node,773,PIPE ADIABATIC 49 OUTLET WATER NODE,Water,1
 Node,774,RES WH_BUILDING UNIT 113 TANK SUPPLY INLET WATER NODE,Water,2
 Node,775,RES WH_BUILDING UNIT 113 TANK SUPPLY OUTLET WATER NODE,Water,2
 Node,776,PIPE ADIABATIC 50 INLET WATER NODE,Water,1
 Node,777,DOMESTIC HOT WATER LOOP|BUILDING UNIT 113 SUPPLY OUTLET NODE,Water,4
 Node,778,DOMESTIC HOT WATER LOOP|BUILDING UNIT 113 DEMAND INLET NODE,Water,2
 Node,779,DOMESTIC HOT WATER LOOP|BUILDING UNIT 113 DEMAND INLET PIPE NODE,Water,1
 Node,780,WATER USE CONNECTIONS 25 INLET WATER NODE,Water,1
 Node,781,WATER USE CONNECTIONS 25 OUTLET WATER NODE,Water,1
 Node,782,DOMESTIC HOT WATER LOOP|BUILDING UNIT 113 DEMAND BYPASS PIPE INLET NODE,Water,1
 Node,783,DOMESTIC HOT WATER LOOP|BUILDING UNIT 113 DEMAND BYPASS PIPE OUTLET NODE,Water,1
 Node,784,DOMESTIC HOT WATER LOOP|BUILDING UNIT 113 DEMAND OUTLET PIPE NODE,Water,1
 Node,785,DOMESTIC HOT WATER LOOP|BUILDING UNIT 113 DEMAND OUTLET NODE,Water,2
 Node,786,DOMESTIC HOT WATER LOOP|BUILDING UNIT 114 SUPPLY INLET NODE,Water,2
 Node,787,PUMP VARIABLE SPEED 26 OUTLET WATER NODE,Water,1
 Node,788,PIPE ADIABATIC 51 INLET WATER NODE,Water,1
 Node,789,PIPE ADIABATIC 51 OUTLET WATER NODE,Water,1
 Node,790,RES WH_BUILDING UNIT 114 TANK SUPPLY INLET WATER NODE,Water,2
 Node,791,RES WH_BUILDING UNIT 114 TANK SUPPLY OUTLET WATER NODE,Water,2
 Node,792,PIPE ADIABATIC 52 INLET WATER NODE,Water,1
 Node,793,DOMESTIC HOT WATER LOOP|BUILDING UNIT 114 SUPPLY OUTLET NODE,Water,4
 Node,794,DOMESTIC HOT WATER LOOP|BUILDING UNIT 114 DEMAND INLET NODE,Water,2
 Node,795,DOMESTIC HOT WATER LOOP|BUILDING UNIT 114 DEMAND INLET PIPE NODE,Water,1
 Node,796,WATER USE CONNECTIONS 26 INLET WATER NODE,Water,1
 Node,797,WATER USE CONNECTIONS 26 OUTLET WATER NODE,Water,1
 Node,798,DOMESTIC HOT WATER LOOP|BUILDING UNIT 114 DEMAND BYPASS PIPE INLET NODE,Water,1
 Node,799,DOMESTIC HOT WATER LOOP|BUILDING UNIT 114 DEMAND BYPASS PIPE OUTLET NODE,Water,1
 Node,800,DOMESTIC HOT WATER LOOP|BUILDING UNIT 114 DEMAND OUTLET PIPE NODE,Water,1
 Node,801,DOMESTIC HOT WATER LOOP|BUILDING UNIT 114 DEMAND OUTLET NODE,Water,2
 Node,802,DOMESTIC HOT WATER LOOP|BUILDING UNIT 115 SUPPLY INLET NODE,Water,2
 Node,803,PUMP VARIABLE SPEED 27 OUTLET WATER NODE,Water,1
 Node,804,PIPE ADIABATIC 53 INLET WATER NODE,Water,1
 Node,805,PIPE ADIABATIC 53 OUTLET WATER NODE,Water,1
 Node,806,RES WH_BUILDING UNIT 115 TANK SUPPLY INLET WATER NODE,Water,2
 Node,807,RES WH_BUILDING UNIT 115 TANK SUPPLY OUTLET WATER NODE,Water,2
 Node,808,PIPE ADIABATIC 54 INLET WATER NODE,Water,1
 Node,809,DOMESTIC HOT WATER LOOP|BUILDING UNIT 115 SUPPLY OUTLET NODE,Water,4
 Node,810,DOMESTIC HOT WATER LOOP|BUILDING UNIT 115 DEMAND INLET NODE,Water,2
 Node,811,DOMESTIC HOT WATER LOOP|BUILDING UNIT 115 DEMAND INLET PIPE NODE,Water,1
 Node,812,WATER USE CONNECTIONS 27 INLET WATER NODE,Water,1
 Node,813,WATER USE CONNECTIONS 27 OUTLET WATER NODE,Water,1
 Node,814,DOMESTIC HOT WATER LOOP|BUILDING UNIT 115 DEMAND BYPASS PIPE INLET NODE,Water,1
 Node,815,DOMESTIC HOT WATER LOOP|BUILDING UNIT 115 DEMAND BYPASS PIPE OUTLET NODE,Water,1
 Node,816,DOMESTIC HOT WATER LOOP|BUILDING UNIT 115 DEMAND OUTLET PIPE NODE,Water,1
 Node,817,DOMESTIC HOT WATER LOOP|BUILDING UNIT 115 DEMAND OUTLET NODE,Water,2
 Node,818,DOMESTIC HOT WATER LOOP|BUILDING UNIT 116 SUPPLY INLET NODE,Water,2
 Node,819,PUMP VARIABLE SPEED 28 OUTLET WATER NODE,Water,1
 Node,820,PIPE ADIABATIC 55 INLET WATER NODE,Water,1
 Node,821,PIPE ADIABATIC 55 OUTLET WATER NODE,Water,1
 Node,822,RES WH_BUILDING UNIT 116 TANK SUPPLY INLET WATER NODE,Water,2
 Node,823,RES WH_BUILDING UNIT 116 TANK SUPPLY OUTLET WATER NODE,Water,2
 Node,824,PIPE ADIABATIC 56 INLET WATER NODE,Water,1
 Node,825,DOMESTIC HOT WATER LOOP|BUILDING UNIT 116 SUPPLY OUTLET NODE,Water,4
 Node,826,DOMESTIC HOT WATER LOOP|BUILDING UNIT 116 DEMAND INLET NODE,Water,2
 Node,827,DOMESTIC HOT WATER LOOP|BUILDING UNIT 116 DEMAND INLET PIPE NODE,Water,1
 Node,828,WATER USE CONNECTIONS 28 INLET WATER NODE,Water,1
 Node,829,WATER USE CONNECTIONS 28 OUTLET WATER NODE,Water,1
 Node,830,DOMESTIC HOT WATER LOOP|BUILDING UNIT 116 DEMAND BYPASS PIPE INLET NODE,Water,1
 Node,831,DOMESTIC HOT WATER LOOP|BUILDING UNIT 116 DEMAND BYPASS PIPE OUTLET NODE,Water,1
 Node,832,DOMESTIC HOT WATER LOOP|BUILDING UNIT 116 DEMAND OUTLET PIPE NODE,Water,1
 Node,833,DOMESTIC HOT WATER LOOP|BUILDING UNIT 116 DEMAND OUTLET NODE,Water,2
 Node,834,DOMESTIC HOT WATER LOOP|BUILDING UNIT 117 SUPPLY INLET NODE,Water,2
 Node,835,PUMP VARIABLE SPEED 29 OUTLET WATER NODE,Water,1
 Node,836,PIPE ADIABATIC 57 INLET WATER NODE,Water,1
 Node,837,PIPE ADIABATIC 57 OUTLET WATER NODE,Water,1
 Node,838,RES WH_BUILDING UNIT 117 TANK SUPPLY INLET WATER NODE,Water,2
 Node,839,RES WH_BUILDING UNIT 117 TANK SUPPLY OUTLET WATER NODE,Water,2
 Node,840,PIPE ADIABATIC 58 INLET WATER NODE,Water,1
 Node,841,DOMESTIC HOT WATER LOOP|BUILDING UNIT 117 SUPPLY OUTLET NODE,Water,4
 Node,842,DOMESTIC HOT WATER LOOP|BUILDING UNIT 117 DEMAND INLET NODE,Water,2
 Node,843,DOMESTIC HOT WATER LOOP|BUILDING UNIT 117 DEMAND INLET PIPE NODE,Water,1
 Node,844,WATER USE CONNECTIONS 29 INLET WATER NODE,Water,1
 Node,845,WATER USE CONNECTIONS 29 OUTLET WATER NODE,Water,1
 Node,846,DOMESTIC HOT WATER LOOP|BUILDING UNIT 117 DEMAND BYPASS PIPE INLET NODE,Water,1
 Node,847,DOMESTIC HOT WATER LOOP|BUILDING UNIT 117 DEMAND BYPASS PIPE OUTLET NODE,Water,1
 Node,848,DOMESTIC HOT WATER LOOP|BUILDING UNIT 117 DEMAND OUTLET PIPE NODE,Water,1
 Node,849,DOMESTIC HOT WATER LOOP|BUILDING UNIT 117 DEMAND OUTLET NODE,Water,2
 Node,850,DOMESTIC HOT WATER LOOP|BUILDING UNIT 118 SUPPLY INLET NODE,Water,2
 Node,851,PUMP VARIABLE SPEED 30 OUTLET WATER NODE,Water,1
 Node,852,PIPE ADIABATIC 59 INLET WATER NODE,Water,1
 Node,853,PIPE ADIABATIC 59 OUTLET WATER NODE,Water,1
 Node,854,RES WH_BUILDING UNIT 118 TANK SUPPLY INLET WATER NODE,Water,2
 Node,855,RES WH_BUILDING UNIT 118 TANK SUPPLY OUTLET WATER NODE,Water,2
 Node,856,PIPE ADIABATIC 60 INLET WATER NODE,Water,1
 Node,857,DOMESTIC HOT WATER LOOP|BUILDING UNIT 118 SUPPLY OUTLET NODE,Water,4
 Node,858,DOMESTIC HOT WATER LOOP|BUILDING UNIT 118 DEMAND INLET NODE,Water,2
 Node,859,DOMESTIC HOT WATER LOOP|BUILDING UNIT 118 DEMAND INLET PIPE NODE,Water,1
 Node,860,WATER USE CONNECTIONS 30 INLET WATER NODE,Water,1
 Node,861,WATER USE CONNECTIONS 30 OUTLET WATER NODE,Water,1
 Node,862,DOMESTIC HOT WATER LOOP|BUILDING UNIT 118 DEMAND BYPASS PIPE INLET NODE,Water,1
 Node,863,DOMESTIC HOT WATER LOOP|BUILDING UNIT 118 DEMAND BYPASS PIPE OUTLET NODE,Water,1
 Node,864,DOMESTIC HOT WATER LOOP|BUILDING UNIT 118 DEMAND OUTLET PIPE NODE,Water,1
 Node,865,DOMESTIC HOT WATER LOOP|BUILDING UNIT 118 DEMAND OUTLET NODE,Water,2
 Node,866,DOMESTIC HOT WATER LOOP|BUILDING UNIT 119 SUPPLY INLET NODE,Water,2
 Node,867,PUMP VARIABLE SPEED 31 OUTLET WATER NODE,Water,1
 Node,868,PIPE ADIABATIC 61 INLET WATER NODE,Water,1
 Node,869,PIPE ADIABATIC 61 OUTLET WATER NODE,Water,1
 Node,870,RES WH_BUILDING UNIT 119 TANK SUPPLY INLET WATER NODE,Water,2
 Node,871,RES WH_BUILDING UNIT 119 TANK SUPPLY OUTLET WATER NODE,Water,2
 Node,872,PIPE ADIABATIC 62 INLET WATER NODE,Water,1
 Node,873,DOMESTIC HOT WATER LOOP|BUILDING UNIT 119 SUPPLY OUTLET NODE,Water,4
 Node,874,DOMESTIC HOT WATER LOOP|BUILDING UNIT 119 DEMAND INLET NODE,Water,2
 Node,875,DOMESTIC HOT WATER LOOP|BUILDING UNIT 119 DEMAND INLET PIPE NODE,Water,1
 Node,876,WATER USE CONNECTIONS 31 INLET WATER NODE,Water,1
 Node,877,WATER USE CONNECTIONS 31 OUTLET WATER NODE,Water,1
 Node,878,DOMESTIC HOT WATER LOOP|BUILDING UNIT 119 DEMAND BYPASS PIPE INLET NODE,Water,1
 Node,879,DOMESTIC HOT WATER LOOP|BUILDING UNIT 119 DEMAND BYPASS PIPE OUTLET NODE,Water,1
 Node,880,DOMESTIC HOT WATER LOOP|BUILDING UNIT 119 DEMAND OUTLET PIPE NODE,Water,1
 Node,881,DOMESTIC HOT WATER LOOP|BUILDING UNIT 119 DEMAND OUTLET NODE,Water,2
 Node,882,DOMESTIC HOT WATER LOOP|BUILDING UNIT 120 SUPPLY INLET NODE,Water,2
 Node,883,PUMP VARIABLE SPEED 32 OUTLET WATER NODE,Water,1
 Node,884,PIPE ADIABATIC 63 INLET WATER NODE,Water,1
 Node,885,PIPE ADIABATIC 63 OUTLET WATER NODE,Water,1
 Node,886,RES WH_BUILDING UNIT 120 TANK SUPPLY INLET WATER NODE,Water,2
 Node,887,RES WH_BUILDING UNIT 120 TANK SUPPLY OUTLET WATER NODE,Water,2
 Node,888,PIPE ADIABATIC 64 INLET WATER NODE,Water,1
 Node,889,DOMESTIC HOT WATER LOOP|BUILDING UNIT 120 SUPPLY OUTLET NODE,Water,4
 Node,890,DOMESTIC HOT WATER LOOP|BUILDING UNIT 120 DEMAND INLET NODE,Water,2
 Node,891,DOMESTIC HOT WATER LOOP|BUILDING UNIT 120 DEMAND INLET PIPE NODE,Water,1
 Node,892,WATER USE CONNECTIONS 32 INLET WATER NODE,Water,1
 Node,893,WATER USE CONNECTIONS 32 OUTLET WATER NODE,Water,1
 Node,894,DOMESTIC HOT WATER LOOP|BUILDING UNIT 120 DEMAND BYPASS PIPE INLET NODE,Water,1
 Node,895,DOMESTIC HOT WATER LOOP|BUILDING UNIT 120 DEMAND BYPASS PIPE OUTLET NODE,Water,1
 Node,896,DOMESTIC HOT WATER LOOP|BUILDING UNIT 120 DEMAND OUTLET PIPE NODE,Water,1
 Node,897,DOMESTIC HOT WATER LOOP|BUILDING UNIT 120 DEMAND OUTLET NODE,Water,2
 Node,898,DOMESTIC HOT WATER LOOP|BUILDING UNIT 121 SUPPLY INLET NODE,Water,2
 Node,899,PUMP VARIABLE SPEED 33 OUTLET WATER NODE,Water,1
 Node,900,PIPE ADIABATIC 65 INLET WATER NODE,Water,1
 Node,901,PIPE ADIABATIC 65 OUTLET WATER NODE,Water,1
 Node,902,RES WH_BUILDING UNIT 121 TANK SUPPLY INLET WATER NODE,Water,2
 Node,903,RES WH_BUILDING UNIT 121 TANK SUPPLY OUTLET WATER NODE,Water,2
 Node,904,PIPE ADIABATIC 66 INLET WATER NODE,Water,1
 Node,905,DOMESTIC HOT WATER LOOP|BUILDING UNIT 121 SUPPLY OUTLET NODE,Water,4
 Node,906,DOMESTIC HOT WATER LOOP|BUILDING UNIT 121 DEMAND INLET NODE,Water,2
 Node,907,DOMESTIC HOT WATER LOOP|BUILDING UNIT 121 DEMAND INLET PIPE NODE,Water,1
 Node,908,WATER USE CONNECTIONS 33 INLET WATER NODE,Water,1
 Node,909,WATER USE CONNECTIONS 33 OUTLET WATER NODE,Water,1
 Node,910,DOMESTIC HOT WATER LOOP|BUILDING UNIT 121 DEMAND BYPASS PIPE INLET NODE,Water,1
 Node,911,DOMESTIC HOT WATER LOOP|BUILDING UNIT 121 DEMAND BYPASS PIPE OUTLET NODE,Water,1
 Node,912,DOMESTIC HOT WATER LOOP|BUILDING UNIT 121 DEMAND OUTLET PIPE NODE,Water,1
 Node,913,DOMESTIC HOT WATER LOOP|BUILDING UNIT 121 DEMAND OUTLET NODE,Water,2
 Node,914,DOMESTIC HOT WATER LOOP|BUILDING UNIT 201 SUPPLY INLET NODE,Water,2
 Node,915,PUMP VARIABLE SPEED 34 OUTLET WATER NODE,Water,1
 Node,916,PIPE ADIABATIC 67 INLET WATER NODE,Water,1
 Node,917,PIPE ADIABATIC 67 OUTLET WATER NODE,Water,1
 Node,918,RES WH_BUILDING UNIT 201 TANK SUPPLY INLET WATER NODE,Water,2
 Node,919,RES WH_BUILDING UNIT 201 TANK SUPPLY OUTLET WATER NODE,Water,2
 Node,920,PIPE ADIABATIC 68 INLET WATER NODE,Water,1
 Node,921,DOMESTIC HOT WATER LOOP|BUILDING UNIT 201 SUPPLY OUTLET NODE,Water,4
 Node,922,DOMESTIC HOT WATER LOOP|BUILDING UNIT 201 DEMAND INLET NODE,Water,2
 Node,923,DOMESTIC HOT WATER LOOP|BUILDING UNIT 201 DEMAND INLET PIPE NODE,Water,1
 Node,924,WATER USE CONNECTIONS 34 INLET WATER NODE,Water,1
 Node,925,WATER USE CONNECTIONS 34 OUTLET WATER NODE,Water,1
 Node,926,DOMESTIC HOT WATER LOOP|BUILDING UNIT 201 DEMAND BYPASS PIPE INLET NODE,Water,1
 Node,927,DOMESTIC HOT WATER LOOP|BUILDING UNIT 201 DEMAND BYPASS PIPE OUTLET NODE,Water,1
 Node,928,DOMESTIC HOT WATER LOOP|BUILDING UNIT 201 DEMAND OUTLET PIPE NODE,Water,1
 Node,929,DOMESTIC HOT WATER LOOP|BUILDING UNIT 201 DEMAND OUTLET NODE,Water,2
 Node,930,DOMESTIC HOT WATER LOOP|BUILDING UNIT 202 SUPPLY INLET NODE,Water,2
 Node,931,PUMP VARIABLE SPEED 35 OUTLET WATER NODE,Water,1
 Node,932,PIPE ADIABATIC 69 INLET WATER NODE,Water,1
 Node,933,PIPE ADIABATIC 69 OUTLET WATER NODE,Water,1
 Node,934,RES WH_BUILDING UNIT 202 TANK SUPPLY INLET WATER NODE,Water,2
 Node,935,RES WH_BUILDING UNIT 202 TANK SUPPLY OUTLET WATER NODE,Water,2
 Node,936,PIPE ADIABATIC 70 INLET WATER NODE,Water,1
 Node,937,DOMESTIC HOT WATER LOOP|BUILDING UNIT 202 SUPPLY OUTLET NODE,Water,4
 Node,938,DOMESTIC HOT WATER LOOP|BUILDING UNIT 202 DEMAND INLET NODE,Water,2
 Node,939,DOMESTIC HOT WATER LOOP|BUILDING UNIT 202 DEMAND INLET PIPE NODE,Water,1
 Node,940,WATER USE CONNECTIONS 35 INLET WATER NODE,Water,1
 Node,941,WATER USE CONNECTIONS 35 OUTLET WATER NODE,Water,1
 Node,942,DOMESTIC HOT WATER LOOP|BUILDING UNIT 202 DEMAND BYPASS PIPE INLET NODE,Water,1
 Node,943,DOMESTIC HOT WATER LOOP|BUILDING UNIT 202 DEMAND BYPASS PIPE OUTLET NODE,Water,1
 Node,944,DOMESTIC HOT WATER LOOP|BUILDING UNIT 202 DEMAND OUTLET PIPE NODE,Water,1
 Node,945,DOMESTIC HOT WATER LOOP|BUILDING UNIT 202 DEMAND OUTLET NODE,Water,2
 Node,946,DOMESTIC HOT WATER LOOP|BUILDING UNIT 203 SUPPLY INLET NODE,Water,2
 Node,947,PUMP VARIABLE SPEED 36 OUTLET WATER NODE,Water,1
 Node,948,PIPE ADIABATIC 71 INLET WATER NODE,Water,1
 Node,949,PIPE ADIABATIC 71 OUTLET WATER NODE,Water,1
 Node,950,RES WH_BUILDING UNIT 203 TANK SUPPLY INLET WATER NODE,Water,2
 Node,951,RES WH_BUILDING UNIT 203 TANK SUPPLY OUTLET WATER NODE,Water,2
 Node,952,PIPE ADIABATIC 72 INLET WATER NODE,Water,1
 Node,953,DOMESTIC HOT WATER LOOP|BUILDING UNIT 203 SUPPLY OUTLET NODE,Water,4
 Node,954,DOMESTIC HOT WATER LOOP|BUILDING UNIT 203 DEMAND INLET NODE,Water,2
 Node,955,DOMESTIC HOT WATER LOOP|BUILDING UNIT 203 DEMAND INLET PIPE NODE,Water,1
 Node,956,WATER USE CONNECTIONS 36 INLET WATER NODE,Water,1
 Node,957,WATER USE CONNECTIONS 36 OUTLET WATER NODE,Water,1
 Node,958,DOMESTIC HOT WATER LOOP|BUILDING UNIT 203 DEMAND BYPASS PIPE INLET NODE,Water,1
 Node,959,DOMESTIC HOT WATER LOOP|BUILDING UNIT 203 DEMAND BYPASS PIPE OUTLET NODE,Water,1
 Node,960,DOMESTIC HOT WATER LOOP|BUILDING UNIT 203 DEMAND OUTLET PIPE NODE,Water,1
 Node,961,DOMESTIC HOT WATER LOOP|BUILDING UNIT 203 DEMAND OUTLET NODE,Water,2
 Node,962,DOMESTIC HOT WATER LOOP|BUILDING UNIT 204 SUPPLY INLET NODE,Water,2
 Node,963,PUMP VARIABLE SPEED 37 OUTLET WATER NODE,Water,1
 Node,964,PIPE ADIABATIC 73 INLET WATER NODE,Water,1
 Node,965,PIPE ADIABATIC 73 OUTLET WATER NODE,Water,1
 Node,966,RES WH_BUILDING UNIT 204 TANK SUPPLY INLET WATER NODE,Water,2
 Node,967,RES WH_BUILDING UNIT 204 TANK SUPPLY OUTLET WATER NODE,Water,2
 Node,968,PIPE ADIABATIC 74 INLET WATER NODE,Water,1
 Node,969,DOMESTIC HOT WATER LOOP|BUILDING UNIT 204 SUPPLY OUTLET NODE,Water,4
 Node,970,DOMESTIC HOT WATER LOOP|BUILDING UNIT 204 DEMAND INLET NODE,Water,2
 Node,971,DOMESTIC HOT WATER LOOP|BUILDING UNIT 204 DEMAND INLET PIPE NODE,Water,1
 Node,972,WATER USE CONNECTIONS 37 INLET WATER NODE,Water,1
 Node,973,WATER USE CONNECTIONS 37 OUTLET WATER NODE,Water,1
 Node,974,DOMESTIC HOT WATER LOOP|BUILDING UNIT 204 DEMAND BYPASS PIPE INLET NODE,Water,1
 Node,975,DOMESTIC HOT WATER LOOP|BUILDING UNIT 204 DEMAND BYPASS PIPE OUTLET NODE,Water,1
 Node,976,DOMESTIC HOT WATER LOOP|BUILDING UNIT 204 DEMAND OUTLET PIPE NODE,Water,1
 Node,977,DOMESTIC HOT WATER LOOP|BUILDING UNIT 204 DEMAND OUTLET NODE,Water,2
 Node,978,DOMESTIC HOT WATER LOOP|BUILDING UNIT 205 SUPPLY INLET NODE,Water,2
 Node,979,PUMP VARIABLE SPEED 38 OUTLET WATER NODE,Water,1
 Node,980,PIPE ADIABATIC 75 INLET WATER NODE,Water,1
 Node,981,PIPE ADIABATIC 75 OUTLET WATER NODE,Water,1
 Node,982,RES WH_BUILDING UNIT 205 TANK SUPPLY INLET WATER NODE,Water,2
 Node,983,RES WH_BUILDING UNIT 205 TANK SUPPLY OUTLET WATER NODE,Water,2
 Node,984,PIPE ADIABATIC 76 INLET WATER NODE,Water,1
 Node,985,DOMESTIC HOT WATER LOOP|BUILDING UNIT 205 SUPPLY OUTLET NODE,Water,4
 Node,986,DOMESTIC HOT WATER LOOP|BUILDING UNIT 205 DEMAND INLET NODE,Water,2
 Node,987,DOMESTIC HOT WATER LOOP|BUILDING UNIT 205 DEMAND INLET PIPE NODE,Water,1
 Node,988,WATER USE CONNECTIONS 38 INLET WATER NODE,Water,1
 Node,989,WATER USE CONNECTIONS 38 OUTLET WATER NODE,Water,1
 Node,990,DOMESTIC HOT WATER LOOP|BUILDING UNIT 205 DEMAND BYPASS PIPE INLET NODE,Water,1
 Node,991,DOMESTIC HOT WATER LOOP|BUILDING UNIT 205 DEMAND BYPASS PIPE OUTLET NODE,Water,1
 Node,992,DOMESTIC HOT WATER LOOP|BUILDING UNIT 205 DEMAND OUTLET PIPE NODE,Water,1
 Node,993,DOMESTIC HOT WATER LOOP|BUILDING UNIT 205 DEMAND OUTLET NODE,Water,2
 Node,994,DOMESTIC HOT WATER LOOP|BUILDING UNIT 206 SUPPLY INLET NODE,Water,2
 Node,995,PUMP VARIABLE SPEED 39 OUTLET WATER NODE,Water,1
 Node,996,PIPE ADIABATIC 77 INLET WATER NODE,Water,1
 Node,997,PIPE ADIABATIC 77 OUTLET WATER NODE,Water,1
 Node,998,RES WH_BUILDING UNIT 206 TANK SUPPLY INLET WATER NODE,Water,2
 Node,999,RES WH_BUILDING UNIT 206 TANK SUPPLY OUTLET WATER NODE,Water,2
 Node,1000,PIPE ADIABATIC 78 INLET WATER NODE,Water,1
 Node,1001,DOMESTIC HOT WATER LOOP|BUILDING UNIT 206 SUPPLY OUTLET NODE,Water,4
 Node,1002,DOMESTIC HOT WATER LOOP|BUILDING UNIT 206 DEMAND INLET NODE,Water,2
 Node,1003,DOMESTIC HOT WATER LOOP|BUILDING UNIT 206 DEMAND INLET PIPE NODE,Water,1
 Node,1004,WATER USE CONNECTIONS 39 INLET WATER NODE,Water,1
 Node,1005,WATER USE CONNECTIONS 39 OUTLET WATER NODE,Water,1
 Node,1006,DOMESTIC HOT WATER LOOP|BUILDING UNIT 206 DEMAND BYPASS PIPE INLET NODE,Water,1
 Node,1007,DOMESTIC HOT WATER LOOP|BUILDING UNIT 206 DEMAND BYPASS PIPE OUTLET NODE,Water,1
 Node,1008,DOMESTIC HOT WATER LOOP|BUILDING UNIT 206 DEMAND OUTLET PIPE NODE,Water,1
 Node,1009,DOMESTIC HOT WATER LOOP|BUILDING UNIT 206 DEMAND OUTLET NODE,Water,2
 Node,1010,DOMESTIC HOT WATER LOOP|BUILDING UNIT 207 SUPPLY INLET NODE,Water,2
 Node,1011,PUMP VARIABLE SPEED 40 OUTLET WATER NODE,Water,1
 Node,1012,PIPE ADIABATIC 79 INLET WATER NODE,Water,1
 Node,1013,PIPE ADIABATIC 79 OUTLET WATER NODE,Water,1
 Node,1014,RES WH_BUILDING UNIT 207 TANK SUPPLY INLET WATER NODE,Water,2
 Node,1015,RES WH_BUILDING UNIT 207 TANK SUPPLY OUTLET WATER NODE,Water,2
 Node,1016,PIPE ADIABATIC 80 INLET WATER NODE,Water,1
 Node,1017,DOMESTIC HOT WATER LOOP|BUILDING UNIT 207 SUPPLY OUTLET NODE,Water,4
 Node,1018,DOMESTIC HOT WATER LOOP|BUILDING UNIT 207 DEMAND INLET NODE,Water,2
 Node,1019,DOMESTIC HOT WATER LOOP|BUILDING UNIT 207 DEMAND INLET PIPE NODE,Water,1
 Node,1020,WATER USE CONNECTIONS 40 INLET WATER NODE,Water,1
 Node,1021,WATER USE CONNECTIONS 40 OUTLET WATER NODE,Water,1
 Node,1022,DOMESTIC HOT WATER LOOP|BUILDING UNIT 207 DEMAND BYPASS PIPE INLET NODE,Water,1
 Node,1023,DOMESTIC HOT WATER LOOP|BUILDING UNIT 207 DEMAND BYPASS PIPE OUTLET NODE,Water,1
 Node,1024,DOMESTIC HOT WATER LOOP|BUILDING UNIT 207 DEMAND OUTLET PIPE NODE,Water,1
 Node,1025,DOMESTIC HOT WATER LOOP|BUILDING UNIT 207 DEMAND OUTLET NODE,Water,2
 Node,1026,DOMESTIC HOT WATER LOOP|BUILDING UNIT 208 SUPPLY INLET NODE,Water,2
 Node,1027,PUMP VARIABLE SPEED 41 OUTLET WATER NODE,Water,1
 Node,1028,PIPE ADIABATIC 81 INLET WATER NODE,Water,1
 Node,1029,PIPE ADIABATIC 81 OUTLET WATER NODE,Water,1
 Node,1030,RES WH_BUILDING UNIT 208 TANK SUPPLY INLET WATER NODE,Water,2
 Node,1031,RES WH_BUILDING UNIT 208 TANK SUPPLY OUTLET WATER NODE,Water,2
 Node,1032,PIPE ADIABATIC 82 INLET WATER NODE,Water,1
 Node,1033,DOMESTIC HOT WATER LOOP|BUILDING UNIT 208 SUPPLY OUTLET NODE,Water,4
 Node,1034,DOMESTIC HOT WATER LOOP|BUILDING UNIT 208 DEMAND INLET NODE,Water,2
 Node,1035,DOMESTIC HOT WATER LOOP|BUILDING UNIT 208 DEMAND INLET PIPE NODE,Water,1
 Node,1036,WATER USE CONNECTIONS 41 INLET WATER NODE,Water,1
 Node,1037,WATER USE CONNECTIONS 41 OUTLET WATER NODE,Water,1
 Node,1038,DOMESTIC HOT WATER LOOP|BUILDING UNIT 208 DEMAND BYPASS PIPE INLET NODE,Water,1
 Node,1039,DOMESTIC HOT WATER LOOP|BUILDING UNIT 208 DEMAND BYPASS PIPE OUTLET NODE,Water,1
 Node,1040,DOMESTIC HOT WATER LOOP|BUILDING UNIT 208 DEMAND OUTLET PIPE NODE,Water,1
 Node,1041,DOMESTIC HOT WATER LOOP|BUILDING UNIT 208 DEMAND OUTLET NODE,Water,2
 Node,1042,DOMESTIC HOT WATER LOOP|BUILDING UNIT 209 SUPPLY INLET NODE,Water,2
 Node,1043,PUMP VARIABLE SPEED 42 OUTLET WATER NODE,Water,1
 Node,1044,PIPE ADIABATIC 83 INLET WATER NODE,Water,1
 Node,1045,PIPE ADIABATIC 83 OUTLET WATER NODE,Water,1
 Node,1046,RES WH_BUILDING UNIT 209 TANK SUPPLY INLET WATER NODE,Water,2
 Node,1047,RES WH_BUILDING UNIT 209 TANK SUPPLY OUTLET WATER NODE,Water,2
 Node,1048,PIPE ADIABATIC 84 INLET WATER NODE,Water,1
 Node,1049,DOMESTIC HOT WATER LOOP|BUILDING UNIT 209 SUPPLY OUTLET NODE,Water,4
 Node,1050,DOMESTIC HOT WATER LOOP|BUILDING UNIT 209 DEMAND INLET NODE,Water,2
 Node,1051,DOMESTIC HOT WATER LOOP|BUILDING UNIT 209 DEMAND INLET PIPE NODE,Water,1
 Node,1052,WATER USE CONNECTIONS 42 INLET WATER NODE,Water,1
 Node,1053,WATER USE CONNECTIONS 42 OUTLET WATER NODE,Water,1
 Node,1054,DOMESTIC HOT WATER LOOP|BUILDING UNIT 209 DEMAND BYPASS PIPE INLET NODE,Water,1
 Node,1055,DOMESTIC HOT WATER LOOP|BUILDING UNIT 209 DEMAND BYPASS PIPE OUTLET NODE,Water,1
 Node,1056,DOMESTIC HOT WATER LOOP|BUILDING UNIT 209 DEMAND OUTLET PIPE NODE,Water,1
 Node,1057,DOMESTIC HOT WATER LOOP|BUILDING UNIT 209 DEMAND OUTLET NODE,Water,2
 Node,1058,DOMESTIC HOT WATER LOOP|BUILDING UNIT 301 SUPPLY INLET NODE,Water,2
 Node,1059,PUMP VARIABLE SPEED 43 OUTLET WATER NODE,Water,1
 Node,1060,PIPE ADIABATIC 85 INLET WATER NODE,Water,1
 Node,1061,PIPE ADIABATIC 85 OUTLET WATER NODE,Water,1
 Node,1062,RES WH_BUILDING UNIT 301 TANK SUPPLY INLET WATER NODE,Water,2
 Node,1063,RES WH_BUILDING UNIT 301 TANK SUPPLY OUTLET WATER NODE,Water,2
 Node,1064,PIPE ADIABATIC 86 INLET WATER NODE,Water,1
 Node,1065,DOMESTIC HOT WATER LOOP|BUILDING UNIT 301 SUPPLY OUTLET NODE,Water,4
 Node,1066,DOMESTIC HOT WATER LOOP|BUILDING UNIT 301 DEMAND INLET NODE,Water,2
 Node,1067,DOMESTIC HOT WATER LOOP|BUILDING UNIT 301 DEMAND INLET PIPE NODE,Water,1
 Node,1068,WATER USE CONNECTIONS 43 INLET WATER NODE,Water,1
 Node,1069,WATER USE CONNECTIONS 43 OUTLET WATER NODE,Water,1
 Node,1070,DOMESTIC HOT WATER LOOP|BUILDING UNIT 301 DEMAND BYPASS PIPE INLET NODE,Water,1
 Node,1071,DOMESTIC HOT WATER LOOP|BUILDING UNIT 301 DEMAND BYPASS PIPE OUTLET NODE,Water,1
 Node,1072,DOMESTIC HOT WATER LOOP|BUILDING UNIT 301 DEMAND OUTLET PIPE NODE,Water,1
 Node,1073,DOMESTIC HOT WATER LOOP|BUILDING UNIT 301 DEMAND OUTLET NODE,Water,2
 Node,1074,DOMESTIC HOT WATER LOOP|BUILDING UNIT 302 SUPPLY INLET NODE,Water,2
 Node,1075,PUMP VARIABLE SPEED 44 OUTLET WATER NODE,Water,1
 Node,1076,PIPE ADIABATIC 87 INLET WATER NODE,Water,1
 Node,1077,PIPE ADIABATIC 87 OUTLET WATER NODE,Water,1
 Node,1078,RES WH_BUILDING UNIT 302 TANK SUPPLY INLET WATER NODE,Water,2
 Node,1079,RES WH_BUILDING UNIT 302 TANK SUPPLY OUTLET WATER NODE,Water,2
 Node,1080,PIPE ADIABATIC 88 INLET WATER NODE,Water,1
 Node,1081,DOMESTIC HOT WATER LOOP|BUILDING UNIT 302 SUPPLY OUTLET NODE,Water,4
 Node,1082,DOMESTIC HOT WATER LOOP|BUILDING UNIT 302 DEMAND INLET NODE,Water,2
 Node,1083,DOMESTIC HOT WATER LOOP|BUILDING UNIT 302 DEMAND INLET PIPE NODE,Water,1
 Node,1084,WATER USE CONNECTIONS 44 INLET WATER NODE,Water,1
 Node,1085,WATER USE CONNECTIONS 44 OUTLET WATER NODE,Water,1
 Node,1086,DOMESTIC HOT WATER LOOP|BUILDING UNIT 302 DEMAND BYPASS PIPE INLET NODE,Water,1
 Node,1087,DOMESTIC HOT WATER LOOP|BUILDING UNIT 302 DEMAND BYPASS PIPE OUTLET NODE,Water,1
 Node,1088,DOMESTIC HOT WATER LOOP|BUILDING UNIT 302 DEMAND OUTLET PIPE NODE,Water,1
 Node,1089,DOMESTIC HOT WATER LOOP|BUILDING UNIT 302 DEMAND OUTLET NODE,Water,2
 Node,1090,DOMESTIC HOT WATER LOOP|BUILDING UNIT 303 SUPPLY INLET NODE,Water,2
 Node,1091,PUMP VARIABLE SPEED 45 OUTLET WATER NODE,Water,1
 Node,1092,PIPE ADIABATIC 89 INLET WATER NODE,Water,1
 Node,1093,PIPE ADIABATIC 89 OUTLET WATER NODE,Water,1
 Node,1094,RES WH_BUILDING UNIT 303 TANK SUPPLY INLET WATER NODE,Water,2
 Node,1095,RES WH_BUILDING UNIT 303 TANK SUPPLY OUTLET WATER NODE,Water,2
 Node,1096,PIPE ADIABATIC 90 INLET WATER NODE,Water,1
 Node,1097,DOMESTIC HOT WATER LOOP|BUILDING UNIT 303 SUPPLY OUTLET NODE,Water,4
 Node,1098,DOMESTIC HOT WATER LOOP|BUILDING UNIT 303 DEMAND INLET NODE,Water,2
 Node,1099,DOMESTIC HOT WATER LOOP|BUILDING UNIT 303 DEMAND INLET PIPE NODE,Water,1
 Node,1100,WATER USE CONNECTIONS 45 INLET WATER NODE,Water,1
 Node,1101,WATER USE CONNECTIONS 45 OUTLET WATER NODE,Water,1
 Node,1102,DOMESTIC HOT WATER LOOP|BUILDING UNIT 303 DEMAND BYPASS PIPE INLET NODE,Water,1
 Node,1103,DOMESTIC HOT WATER LOOP|BUILDING UNIT 303 DEMAND BYPASS PIPE OUTLET NODE,Water,1
 Node,1104,DOMESTIC HOT WATER LOOP|BUILDING UNIT 303 DEMAND OUTLET PIPE NODE,Water,1
 Node,1105,DOMESTIC HOT WATER LOOP|BUILDING UNIT 303 DEMAND OUTLET NODE,Water,2
 Node,1106,0_BDRM_1_2 ZONE AIR NODE,Air,0
 Node,1107,0_BDRM_1_3 ZONE AIR NODE,Air,0
 Node,1108,0_BDRM_1_4 ZONE AIR NODE,Air,0
 Node,1109,0_BDRM_2_2 ZONE AIR NODE,Air,0
 Node,1110,0_BDRM_2_3 ZONE AIR NODE,Air,0
 Node,1111,0_BDRM_2_4 ZONE AIR NODE,Air,0
 Node,1112,0_BDRM_3_2 ZONE AIR NODE,Air,0
 Node,1113,0_BDRM_3_3 ZONE AIR NODE,Air,0
 Node,1114,0_BDRM_3_4 ZONE AIR NODE,Air,0
 Node,1115,0_BDRM_4_2 ZONE AIR NODE,Air,0
 Node,1116,0_BDRM_4_3 ZONE AIR NODE,Air,0
 Node,1117,0_BDRM_4_4 ZONE AIR NODE,Air,0
 Node,1118,1_BDRM_1_2 ZONE AIR NODE,Air,0
 Node,1119,1_BDRM_1_3 ZONE AIR NODE,Air,0
 Node,1120,1_BDRM_1_4 ZONE AIR NODE,Air,0
 Node,1121,1_BDRM_2_2 ZONE AIR NODE,Air,0
 Node,1122,1_BDRM_2_3 ZONE AIR NODE,Air,0
 Node,1123,1_BDRM_2_4 ZONE AIR NODE,Air,0
 Node,1124,1_BDRM_3_2 ZONE AIR NODE,Air,0
 Node,1125,1_BDRM_3_3 ZONE AIR NODE,Air,0
 Node,1126,1_BDRM_3_4 ZONE AIR NODE,Air,0
 Node,1127,1_BDRM_4_2 ZONE AIR NODE,Air,0
 Node,1128,1_BDRM_4_3 ZONE AIR NODE,Air,0
 Node,1129,1_BDRM_4_4 ZONE AIR NODE,Air,0
 Node,1130,1_BDRM_5_2 ZONE AIR NODE,Air,0
 Node,1131,1_BDRM_5_3 ZONE AIR NODE,Air,0
 Node,1132,1_BDRM_5_4 ZONE AIR NODE,Air,0
 Node,1133,1_BDRM_6_2 ZONE AIR NODE,Air,0
 Node,1134,1_BDRM_6_3 ZONE AIR NODE,Air,0
 Node,1135,1_BDRM_6_4 ZONE AIR NODE,Air,0
 Node,1136,1_BDRM_7_2 ZONE AIR NODE,Air,0
 Node,1137,1_BDRM_7_3 ZONE AIR NODE,Air,0
 Node,1138,1_BDRM_7_4 ZONE AIR NODE,Air,0
 Node,1139,2_BDRM_1_2 ZONE AIR NODE,Air,0
 Node,1140,2_BDRM_1_3 ZONE AIR NODE,Air,0
 Node,1141,2_BDRM_1_4 ZONE AIR NODE,Air,0
 Node,1142,2_BDRM_2_2 ZONE AIR NODE,Air,0
 Node,1143,2_BDRM_2_3 ZONE AIR NODE,Air,0
 Node,1144,2_BDRM_2_4 ZONE AIR NODE,Air,0
 Node,1145,2_BDRM_3_2 ZONE AIR NODE,Air,0
 Node,1146,2_BDRM_3_3 ZONE AIR NODE,Air,0
 Node,1147,2_BDRM_3_4 ZONE AIR NODE,Air,0
 Node,1148,3_BDRM_1_3 ZONE AIR NODE,Air,0
 Node,1149,3_BDRM_1_4 ZONE AIR NODE,Air,0
 Node,1150,3_BDRM_2_2 ZONE AIR NODE,Air,0
 Node,1151,BATHRM_1 ZONE AIR NODE,Air,0
 Node,1152,BATHRM_2 ZONE AIR NODE,Air,0
 Node,1153,COFFEE_SHOP ZONE AIR NODE,Air,0
 Node,1154,COMMUNITY_RM ZONE AIR NODE,Air,0
 Node,1155,GYM 1 ZONE AIR NODE,Air,0
 Node,1156,LT_RETAIL_1 ZONE AIR NODE,Air,0
 Node,1157,LT_RETAIL_2 ZONE AIR NODE,Air,0
 Node,1158,LT_RETAIL_3 ZONE AIR NODE,Air,0
 Node,1159,LT_RETAIL_4 ZONE AIR NODE,Air,0
 Node,1160,OFFICE 1 ZONE AIR NODE,Air,0
 Node,1161,0_BDRM_1_2 CENTRAL AIR SOURCE HP DEMAND OUTLET NODE,Air,2
 Node,1162,0_BDRM_1_3 CENTRAL AIR SOURCE HP DEMAND OUTLET NODE,Air,2
 Node,1163,0_BDRM_1_4 CENTRAL AIR SOURCE HP DEMAND OUTLET NODE,Air,2
 Node,1164,0_BDRM_2_2 CENTRAL AIR SOURCE HP DEMAND OUTLET NODE,Air,2
 Node,1165,0_BDRM_2_3 CENTRAL AIR SOURCE HP DEMAND OUTLET NODE,Air,2
 Node,1166,0_BDRM_2_4 CENTRAL AIR SOURCE HP DEMAND OUTLET NODE,Air,2
 Node,1167,0_BDRM_3_2 CENTRAL AIR SOURCE HP DEMAND OUTLET NODE,Air,2
 Node,1168,0_BDRM_3_3 CENTRAL AIR SOURCE HP DEMAND OUTLET NODE,Air,2
 Node,1169,0_BDRM_3_4 CENTRAL AIR SOURCE HP DEMAND OUTLET NODE,Air,2
 Node,1170,0_BDRM_4_2 CENTRAL AIR SOURCE HP DEMAND OUTLET NODE,Air,2
 Node,1171,0_BDRM_4_3 CENTRAL AIR SOURCE HP DEMAND OUTLET NODE,Air,2
 Node,1172,0_BDRM_4_4 CENTRAL AIR SOURCE HP DEMAND OUTLET NODE,Air,2
 Node,1173,1_BDRM_1_2 CENTRAL AIR SOURCE HP DEMAND OUTLET NODE,Air,2
 Node,1174,1_BDRM_1_3 CENTRAL AIR SOURCE HP DEMAND OUTLET NODE,Air,2
 Node,1175,1_BDRM_1_4 CENTRAL AIR SOURCE HP DEMAND OUTLET NODE,Air,2
 Node,1176,1_BDRM_2_2 CENTRAL AIR SOURCE HP DEMAND OUTLET NODE,Air,2
 Node,1177,1_BDRM_2_3 CENTRAL AIR SOURCE HP DEMAND OUTLET NODE,Air,2
 Node,1178,1_BDRM_2_4 CENTRAL AIR SOURCE HP DEMAND OUTLET NODE,Air,2
 Node,1179,1_BDRM_3_2 CENTRAL AIR SOURCE HP DEMAND OUTLET NODE,Air,2
 Node,1180,1_BDRM_3_3 CENTRAL AIR SOURCE HP DEMAND OUTLET NODE,Air,2
 Node,1181,1_BDRM_3_4 CENTRAL AIR SOURCE HP DEMAND OUTLET NODE,Air,2
 Node,1182,1_BDRM_4_2 CENTRAL AIR SOURCE HP DEMAND OUTLET NODE,Air,2
 Node,1183,1_BDRM_4_3 CENTRAL AIR SOURCE HP DEMAND OUTLET NODE,Air,2
 Node,1184,1_BDRM_4_4 CENTRAL AIR SOURCE HP DEMAND OUTLET NODE,Air,2
 Node,1185,1_BDRM_5_2 CENTRAL AIR SOURCE HP DEMAND OUTLET NODE,Air,2
 Node,1186,1_BDRM_5_3 CENTRAL AIR SOURCE HP DEMAND OUTLET NODE,Air,2
 Node,1187,1_BDRM_5_4 CENTRAL AIR SOURCE HP DEMAND OUTLET NODE,Air,2
 Node,1188,1_BDRM_6_2 CENTRAL AIR SOURCE HP DEMAND OUTLET NODE,Air,2
 Node,1189,1_BDRM_6_3 CENTRAL AIR SOURCE HP DEMAND OUTLET NODE,Air,2
 Node,1190,1_BDRM_6_4 CENTRAL AIR SOURCE HP DEMAND OUTLET NODE,Air,2
 Node,1191,1_BDRM_7_2 CENTRAL AIR SOURCE HP DEMAND OUTLET NODE,Air,2
 Node,1192,1_BDRM_7_3 CENTRAL AIR SOURCE HP DEMAND OUTLET NODE,Air,2
 Node,1193,1_BDRM_7_4 CENTRAL AIR SOURCE HP DEMAND OUTLET NODE,Air,2
 Node,1194,2_BDRM_1_2 CENTRAL AIR SOURCE HP DEMAND OUTLET NODE,Air,2
 Node,1195,2_BDRM_1_3 CENTRAL AIR SOURCE HP DEMAND OUTLET NODE,Air,2
 Node,1196,2_BDRM_1_4 CENTRAL AIR SOURCE HP DEMAND OUTLET NODE,Air,2
 Node,1197,2_BDRM_2_2 CENTRAL AIR SOURCE HP DEMAND OUTLET NODE,Air,2
 Node,1198,2_BDRM_2_3 CENTRAL AIR SOURCE HP DEMAND OUTLET NODE,Air,2
 Node,1199,2_BDRM_2_4 CENTRAL AIR SOURCE HP DEMAND OUTLET NODE,Air,2
 Node,1200,2_BDRM_3_2 CENTRAL AIR SOURCE HP DEMAND OUTLET NODE,Air,2
 Node,1201,2_BDRM_3_3 CENTRAL AIR SOURCE HP DEMAND OUTLET NODE,Air,2
 Node,1202,2_BDRM_3_4 CENTRAL AIR SOURCE HP DEMAND OUTLET NODE,Air,2
 Node,1203,3_BDRM_1_3 CENTRAL AIR SOURCE HP DEMAND OUTLET NODE,Air,2
 Node,1204,3_BDRM_1_4 CENTRAL AIR SOURCE HP DEMAND OUTLET NODE,Air,2
 Node,1205,3_BDRM_2_2 CENTRAL AIR SOURCE HP DEMAND OUTLET NODE,Air,2
 Node,1206,BATHRM_1 CENTRAL AIR SOURCE HP DEMAND OUTLET NODE,Air,2
 Node,1207,BATHRM_2 CENTRAL AIR SOURCE HP DEMAND OUTLET NODE,Air,2
 Node,1208,COFFEE_SHOP CENTRAL AIR SOURCE HP DEMAND OUTLET NODE,Air,2
 Node,1209,COMMUNITY_RM CENTRAL AIR SOURCE HP DEMAND OUTLET NODE,Air,2
 Node,1210,GYM 1 CENTRAL AIR SOURCE HP DEMAND OUTLET NODE,Air,2
 Node,1211,LT_RETAIL_1 CENTRAL AIR SOURCE HP DEMAND OUTLET NODE,Air,2
 Node,1212,LT_RETAIL_2 CENTRAL AIR SOURCE HP DEMAND OUTLET NODE,Air,2
 Node,1213,LT_RETAIL_3 CENTRAL AIR SOURCE HP DEMAND OUTLET NODE,Air,2
 Node,1214,LT_RETAIL_4 CENTRAL AIR SOURCE HP DEMAND OUTLET NODE,Air,2
 Node,1215,OFFICE 1 CENTRAL AIR SOURCE HP DEMAND OUTLET NODE,Air,2
 Node,1216,0_BDRM_1_2 CENTRAL AIR SOURCE HP UNITARY SYSTEM FAN - COOLING COIL NODE,Air,1
[...]
 Non-Parent Node Connection,1_BDRM_7_4 CENTRAL AIR SOURCE HP UNITARY SYSTEM HEATING COIL - SUPPLEMENTAL COIL NODE,COIL:HEATING:ELECTRIC,1_BDRM_7_4 CENTRAL AIR SOURCE HP SUPPLEMENTAL HTG COIL,Inlet,1
 Non-Parent Node Connection,1_BDRM_7_4 CENTRAL AIR SOURCE HP SUPPLY OUTLET NODE,COIL:HEATING:ELECTRIC,1_BDRM_7_4 CENTRAL AIR SOURCE HP SUPPLEMENTAL HTG COIL,Outlet,1
 Non-Parent Node Connection,2_BDRM_1_2 CENTRAL AIR SOURCE HP UNITARY SYSTEM HEATING COIL - SUPPLEMENTAL COIL NODE,COIL:HEATING:ELECTRIC,2_BDRM_1_2 CENTRAL AIR SOURCE HP SUPPLEMENTAL HTG COIL,Inlet,1
 Non-Parent Node Connection,2_BDRM_1_2 CENTRAL AIR SOURCE HP SUPPLY OUTLET NODE,COIL:HEATING:ELECTRIC,2_BDRM_1_2 CENTRAL AIR SOURCE HP SUPPLEMENTAL HTG COIL,Outlet,1
 Non-Parent Node Connection,2_BDRM_1_3 CENTRAL AIR SOURCE HP UNITARY SYSTEM HEATING COIL - SUPPLEMENTAL COIL NODE,COIL:HEATING:ELECTRIC,2_BDRM_1_3 CENTRAL AIR SOURCE HP SUPPLEMENTAL HTG COIL,Inlet,1
 Non-Parent Node Connection,2_BDRM_1_3 CENTRAL AIR SOURCE HP SUPPLY OUTLET NODE,COIL:HEATING:ELECTRIC,2_BDRM_1_3 CENTRAL AIR SOURCE HP SUPPLEMENTAL HTG COIL,Outlet,1
 Non-Parent Node Connection,2_BDRM_1_4 CENTRAL AIR SOURCE HP UNITARY SYSTEM HEATING COIL - SUPPLEMENTAL COIL NODE,COIL:HEATING:ELECTRIC,2_BDRM_1_4 CENTRAL AIR SOURCE HP SUPPLEMENTAL HTG COIL,Inlet,1
 Non-Parent Node Connection,2_BDRM_1_4 CENTRAL AIR SOURCE HP SUPPLY OUTLET NODE,COIL:HEATING:ELECTRIC,2_BDRM_1_4 CENTRAL AIR SOURCE HP SUPPLEMENTAL HTG COIL,Outlet,1
 Non-Parent Node Connection,2_BDRM_2_2 CENTRAL AIR SOURCE HP UNITARY SYSTEM HEATING COIL - SUPPLEMENTAL COIL NODE,COIL:HEATING:ELECTRIC,2_BDRM_2_2 CENTRAL AIR SOURCE HP SUPPLEMENTAL HTG COIL,Inlet,1
 Non-Parent Node Connection,2_BDRM_2_2 CENTRAL AIR SOURCE HP SUPPLY OUTLET NODE,COIL:HEATING:ELECTRIC,2_BDRM_2_2 CENTRAL AIR SOURCE HP SUPPLEMENTAL HTG COIL,Outlet,1
 Non-Parent Node Connection,2_BDRM_2_3 CENTRAL AIR SOURCE HP UNITARY SYSTEM HEATING COIL - SUPPLEMENTAL COIL NODE,COIL:HEATING:ELECTRIC,2_BDRM_2_3 CENTRAL AIR SOURCE HP SUPPLEMENTAL HTG COIL,Inlet,1
 Non-Parent Node Connection,2_BDRM_2_3 CENTRAL AIR SOURCE HP SUPPLY OUTLET NODE,COIL:HEATING:ELECTRIC,2_BDRM_2_3 CENTRAL AIR SOURCE HP SUPPLEMENTAL HTG COIL,Outlet,1
 Non-Parent Node Connection,2_BDRM_2_4 CENTRAL AIR SOURCE HP UNITARY SYSTEM HEATING COIL - SUPPLEMENTAL COIL NODE,COIL:HEATING:ELECTRIC,2_BDRM_2_4 CENTRAL AIR SOURCE HP SUPPLEMENTAL HTG COIL,Inlet,1
 Non-Parent Node Connection,2_BDRM_2_4 CENTRAL AIR SOURCE HP SUPPLY OUTLET NODE,COIL:HEATING:ELECTRIC,2_BDRM_2_4 CENTRAL AIR SOURCE HP SUPPLEMENTAL HTG COIL,Outlet,1
 Non-Parent Node Connection,2_BDRM_3_2 CENTRAL AIR SOURCE HP UNITARY SYSTEM HEATING COIL - SUPPLEMENTAL COIL NODE,COIL:HEATING:ELECTRIC,2_BDRM_3_2 CENTRAL AIR SOURCE HP SUPPLEMENTAL HTG COIL,Inlet,1
 Non-Parent Node Connection,2_BDRM_3_2 CENTRAL AIR SOURCE HP SUPPLY OUTLET NODE,COIL:HEATING:ELECTRIC,2_BDRM_3_2 CENTRAL AIR SOURCE HP SUPPLEMENTAL HTG COIL,Outlet,1
 Non-Parent Node Connection,2_BDRM_3_3 CENTRAL AIR SOURCE HP UNITARY SYSTEM HEATING COIL - SUPPLEMENTAL COIL NODE,COIL:HEATING:ELECTRIC,2_BDRM_3_3 CENTRAL AIR SOURCE HP SUPPLEMENTAL HTG COIL,Inlet,1
 Non-Parent Node Connection,2_BDRM_3_3 CENTRAL AIR SOURCE HP SUPPLY OUTLET NODE,COIL:HEATING:ELECTRIC,2_BDRM_3_3 CENTRAL AIR SOURCE HP SUPPLEMENTAL HTG COIL,Outlet,1
 Non-Parent Node Connection,2_BDRM_3_4 CENTRAL AIR SOURCE HP UNITARY SYSTEM HEATING COIL - SUPPLEMENTAL COIL NODE,COIL:HEATING:ELECTRIC,2_BDRM_3_4 CENTRAL AIR SOURCE HP SUPPLEMENTAL HTG COIL,Inlet,1
 Non-Parent Node Connection,2_BDRM_3_4 CENTRAL AIR SOURCE HP SUPPLY OUTLET NODE,COIL:HEATING:ELECTRIC,2_BDRM_3_4 CENTRAL AIR SOURCE HP SUPPLEMENTAL HTG COIL,Outlet,1
 Non-Parent Node Connection,3_BDRM_1_3 CENTRAL AIR SOURCE HP UNITARY SYSTEM HEATING COIL - SUPPLEMENTAL COIL NODE,COIL:HEATING:ELECTRIC,3_BDRM_1_3 CENTRAL AIR SOURCE HP SUPPLEMENTAL HTG COIL,Inlet,1
 Non-Parent Node Connection,3_BDRM_1_3 CENTRAL AIR SOURCE HP SUPPLY OUTLET NODE,COIL:HEATING:ELECTRIC,3_BDRM_1_3 CENTRAL AIR SOURCE HP SUPPLEMENTAL HTG COIL,Outlet,1
 Non-Parent Node Connection,3_BDRM_1_4 CENTRAL AIR SOURCE HP UNITARY SYSTEM HEATING COIL - SUPPLEMENTAL COIL NODE,COIL:HEATING:ELECTRIC,3_BDRM_1_4 CENTRAL AIR SOURCE HP SUPPLEMENTAL HTG COIL,Inlet,1
 Non-Parent Node Connection,3_BDRM_1_4 CENTRAL AIR SOURCE HP SUPPLY OUTLET NODE,COIL:HEATING:ELECTRIC,3_BDRM_1_4 CENTRAL AIR SOURCE HP SUPPLEMENTAL HTG COIL,Outlet,1
 Non-Parent Node Connection,3_BDRM_2_2 CENTRAL AIR SOURCE HP UNITARY SYSTEM HEATING COIL - SUPPLEMENTAL COIL NODE,COIL:HEATING:ELECTRIC,3_BDRM_2_2 CENTRAL AIR SOURCE HP SUPPLEMENTAL HTG COIL,Inlet,1
 Non-Parent Node Connection,3_BDRM_2_2 CENTRAL AIR SOURCE HP SUPPLY OUTLET NODE,COIL:HEATING:ELECTRIC,3_BDRM_2_2 CENTRAL AIR SOURCE HP SUPPLEMENTAL HTG COIL,Outlet,1
 Non-Parent Node Connection,BATHRM_1 CENTRAL AIR SOURCE HP UNITARY SYSTEM HEATING COIL - SUPPLEMENTAL COIL NODE,COIL:HEATING:ELECTRIC,BATHRM_1 CENTRAL AIR SOURCE HP SUPPLEMENTAL HTG COIL,Inlet,1
 Non-Parent Node Connection,BATHRM_1 CENTRAL AIR SOURCE HP SUPPLY OUTLET NODE,COIL:HEATING:ELECTRIC,BATHRM_1 CENTRAL AIR SOURCE HP SUPPLEMENTAL HTG COIL,Outlet,1
 Non-Parent Node Connection,BATHRM_2 CENTRAL AIR SOURCE HP UNITARY SYSTEM HEATING COIL - SUPPLEMENTAL COIL NODE,COIL:HEATING:ELECTRIC,BATHRM_2 CENTRAL AIR SOURCE HP SUPPLEMENTAL HTG COIL,Inlet,1
 Non-Parent Node Connection,BATHRM_2 CENTRAL AIR SOURCE HP SUPPLY OUTLET NODE,COIL:HEATING:ELECTRIC,BATHRM_2 CENTRAL AIR SOURCE HP SUPPLEMENTAL HTG COIL,Outlet,1
 Non-Parent Node Connection,COFFEE_SHOP CENTRAL AIR SOURCE HP UNITARY SYSTEM HEATING COIL - SUPPLEMENTAL COIL NODE,COIL:HEATING:ELECTRIC,COFFEE_SHOP CENTRAL AIR SOURCE HP SUPPLEMENTAL HTG COIL,Inlet,1
 Non-Parent Node Connection,COFFEE_SHOP CENTRAL AIR SOURCE HP SUPPLY OUTLET NODE,COIL:HEATING:ELECTRIC,COFFEE_SHOP CENTRAL AIR SOURCE HP SUPPLEMENTAL HTG COIL,Outlet,1
 Non-Parent Node Connection,COMMUNITY_RM CENTRAL AIR SOURCE HP UNITARY SYSTEM HEATING COIL - SUPPLEMENTAL COIL NODE,COIL:HEATING:ELECTRIC,COMMUNITY_RM CENTRAL AIR SOURCE HP SUPPLEMENTAL HTG COIL,Inlet,1
 Non-Parent Node Connection,COMMUNITY_RM CENTRAL AIR SOURCE HP SUPPLY OUTLET NODE,COIL:HEATING:ELECTRIC,COMMUNITY_RM CENTRAL AIR SOURCE HP SUPPLEMENTAL HTG COIL,Outlet,1
 Non-Parent Node Connection,GYM 1 CENTRAL AIR SOURCE HP UNITARY SYSTEM HEATING COIL - SUPPLEMENTAL COIL NODE,COIL:HEATING:ELECTRIC,GYM 1 CENTRAL AIR SOURCE HP SUPPLEMENTAL HTG COIL,Inlet,1
 Non-Parent Node Connection,GYM 1 CENTRAL AIR SOURCE HP SUPPLY OUTLET NODE,COIL:HEATING:ELECTRIC,GYM 1 CENTRAL AIR SOURCE HP SUPPLEMENTAL HTG COIL,Outlet,1
 Non-Parent Node Connection,LT_RETAIL_1 CENTRAL AIR SOURCE HP UNITARY SYSTEM HEATING COIL - SUPPLEMENTAL COIL NODE,COIL:HEATING:ELECTRIC,LT_RETAIL_1 CENTRAL AIR SOURCE HP SUPPLEMENTAL HTG COIL,Inlet,1
 Non-Parent Node Connection,LT_RETAIL_1 CENTRAL AIR SOURCE HP SUPPLY OUTLET NODE,COIL:HEATING:ELECTRIC,LT_RETAIL_1 CENTRAL AIR SOURCE HP SUPPLEMENTAL HTG COIL,Outlet,1
 Non-Parent Node Connection,LT_RETAIL_2 CENTRAL AIR SOURCE HP UNITARY SYSTEM HEATING COIL - SUPPLEMENTAL COIL NODE,COIL:HEATING:ELECTRIC,LT_RETAIL_2 CENTRAL AIR SOURCE HP SUPPLEMENTAL HTG COIL,Inlet,1
 Non-Parent Node Connection,LT_RETAIL_2 CENTRAL AIR SOURCE HP SUPPLY OUTLET NODE,COIL:HEATING:ELECTRIC,LT_RETAIL_2 CENTRAL AIR SOURCE HP SUPPLEMENTAL HTG COIL,Outlet,1
 Non-Parent Node Connection,LT_RETAIL_3 CENTRAL AIR SOURCE HP UNITARY SYSTEM HEATING COIL - SUPPLEMENTAL COIL NODE,COIL:HEATING:ELECTRIC,LT_RETAIL_3 CENTRAL AIR SOURCE HP SUPPLEMENTAL HTG COIL,Inlet,1
 Non-Parent Node Connection,LT_RETAIL_3 CENTRAL AIR SOURCE HP SUPPLY OUTLET NODE,COIL:HEATING:ELECTRIC,LT_RETAIL_3 CENTRAL AIR SOURCE HP SUPPLEMENTAL HTG COIL,Outlet,1
 Non-Parent Node Connection,LT_RETAIL_4 CENTRAL AIR SOURCE HP UNITARY SYSTEM HEATING COIL - SUPPLEMENTAL COIL NODE,COIL:HEATING:ELECTRIC,LT_RETAIL_4 CENTRAL AIR SOURCE HP SUPPLEMENTAL HTG COIL,Inlet,1
 Non-Parent Node Connection,LT_RETAIL_4 CENTRAL AIR SOURCE HP SUPPLY OUTLET NODE,COIL:HEATING:ELECTRIC,LT_RETAIL_4 CENTRAL AIR SOURCE HP SUPPLEMENTAL HTG COIL,Outlet,1
 Non-Parent Node Connection,OFFICE 1 CENTRAL AIR SOURCE HP UNITARY SYSTEM HEATING COIL - SUPPLEMENTAL COIL NODE,COIL:HEATING:ELECTRIC,OFFICE 1 CENTRAL AIR SOURCE HP SUPPLEMENTAL HTG COIL,Inlet,1
 Non-Parent Node Connection,OFFICE 1 CENTRAL AIR SOURCE HP SUPPLY OUTLET NODE,COIL:HEATING:ELECTRIC,OFFICE 1 CENTRAL AIR SOURCE HP SUPPLEMENTAL HTG COIL,Outlet,1
 Non-Parent Node Connection,DOMESTIC HOT WATER LOOP|BUILDING UNIT 001 SUPPLY INLET NODE,PUMP:VARIABLESPEED,PUMP VARIABLE SPEED 1,Inlet,1
 Non-Parent Node Connection,PUMP VARIABLE SPEED 1 OUTLET WATER NODE,PUMP:VARIABLESPEED,PUMP VARIABLE SPEED 1,Outlet,1
 Non-Parent Node Connection,DOMESTIC HOT WATER LOOP|BUILDING UNIT 002 SUPPLY INLET NODE,PUMP:VARIABLESPEED,PUMP VARIABLE SPEED 2,Inlet,1
 Non-Parent Node Connection,PUMP VARIABLE SPEED 2 OUTLET WATER NODE,PUMP:VARIABLESPEED,PUMP VARIABLE SPEED 2,Outlet,1
 Non-Parent Node Connection,DOMESTIC HOT WATER LOOP|BUILDING UNIT 003 SUPPLY INLET NODE,PUMP:VARIABLESPEED,PUMP VARIABLE SPEED 3,Inlet,1
 Non-Parent Node Connection,PUMP VARIABLE SPEED 3 OUTLET WATER NODE,PUMP:VARIABLESPEED,PUMP VARIABLE SPEED 3,Outlet,1
 Non-Parent Node Connection,DOMESTIC HOT WATER LOOP|BUILDING UNIT 004 SUPPLY INLET NODE,PUMP:VARIABLESPEED,PUMP VARIABLE SPEED 4,Inlet,1
 Non-Parent Node Connection,PUMP VARIABLE SPEED 4 OUTLET WATER NODE,PUMP:VARIABLESPEED,PUMP VARIABLE SPEED 4,Outlet,1
 Non-Parent Node Connection,DOMESTIC HOT WATER LOOP|BUILDING UNIT 005 SUPPLY INLET NODE,PUMP:VARIABLESPEED,PUMP VARIABLE SPEED 5,Inlet,1
 Non-Parent Node Connection,PUMP VARIABLE SPEED 5 OUTLET WATER NODE,PUMP:VARIABLESPEED,PUMP VARIABLE SPEED 5,Outlet,1
 Non-Parent Node Connection,DOMESTIC HOT WATER LOOP|BUILDING UNIT 006 SUPPLY INLET NODE,PUMP:VARIABLESPEED,PUMP VARIABLE SPEED 6,Inlet,1
 Non-Parent Node Connection,PUMP VARIABLE SPEED 6 OUTLET WATER NODE,PUMP:VARIABLESPEED,PUMP VARIABLE SPEED 6,Outlet,1
 Non-Parent Node Connection,DOMESTIC HOT WATER LOOP|BUILDING UNIT 007 SUPPLY INLET NODE,PUMP:VARIABLESPEED,PUMP VARIABLE SPEED 7,Inlet,1
 Non-Parent Node Connection,PUMP VARIABLE SPEED 7 OUTLET WATER NODE,PUMP:VARIABLESPEED,PUMP VARIABLE SPEED 7,Outlet,1
 Non-Parent Node Connection,DOMESTIC HOT WATER LOOP|BUILDING UNIT 008 SUPPLY INLET NODE,PUMP:VARIABLESPEED,PUMP VARIABLE SPEED 8,Inlet,1
 Non-Parent Node Connection,PUMP VARIABLE SPEED 8 OUTLET WATER NODE,PUMP:VARIABLESPEED,PUMP VARIABLE SPEED 8,Outlet,1
 Non-Parent Node Connection,DOMESTIC HOT WATER LOOP|BUILDING UNIT 009 SUPPLY INLET NODE,PUMP:VARIABLESPEED,PUMP VARIABLE SPEED 9,Inlet,1
 Non-Parent Node Connection,PUMP VARIABLE SPEED 9 OUTLET WATER NODE,PUMP:VARIABLESPEED,PUMP VARIABLE SPEED 9,Outlet,1
 Non-Parent Node Connection,DOMESTIC HOT WATER LOOP|BUILDING UNIT 010 SUPPLY INLET NODE,PUMP:VARIABLESPEED,PUMP VARIABLE SPEED 10,Inlet,1
 Non-Parent Node Connection,PUMP VARIABLE SPEED 10 OUTLET WATER NODE,PUMP:VARIABLESPEED,PUMP VARIABLE SPEED 10,Outlet,1
 Non-Parent Node Connection,DOMESTIC HOT WATER LOOP|BUILDING UNIT 011 SUPPLY INLET NODE,PUMP:VARIABLESPEED,PUMP VARIABLE SPEED 11,Inlet,1
 Non-Parent Node Connection,PUMP VARIABLE SPEED 11 OUTLET WATER NODE,PUMP:VARIABLESPEED,PUMP VARIABLE SPEED 11,Outlet,1
 Non-Parent Node Connection,DOMESTIC HOT WATER LOOP|BUILDING UNIT 012 SUPPLY INLET NODE,PUMP:VARIABLESPEED,PUMP VARIABLE SPEED 12,Inlet,1
 Non-Parent Node Connection,PUMP VARIABLE SPEED 12 OUTLET WATER NODE,PUMP:VARIABLESPEED,PUMP VARIABLE SPEED 12,Outlet,1
 Non-Parent Node Connection,DOMESTIC HOT WATER LOOP|BUILDING UNIT 101 SUPPLY INLET NODE,PUMP:VARIABLESPEED,PUMP VARIABLE SPEED 13,Inlet,1
 Non-Parent Node Connection,PUMP VARIABLE SPEED 13 OUTLET WATER NODE,PUMP:VARIABLESPEED,PUMP VARIABLE SPEED 13,Outlet,1
 Non-Parent Node Connection,DOMESTIC HOT WATER LOOP|BUILDING UNIT 102 SUPPLY INLET NODE,PUMP:VARIABLESPEED,PUMP VARIABLE SPEED 14,Inlet,1
 Non-Parent Node Connection,PUMP VARIABLE SPEED 14 OUTLET WATER NODE,PUMP:VARIABLESPEED,PUMP VARIABLE SPEED 14,Outlet,1
 Non-Parent Node Connection,DOMESTIC HOT WATER LOOP|BUILDING UNIT 103 SUPPLY INLET NODE,PUMP:VARIABLESPEED,PUMP VARIABLE SPEED 15,Inlet,1
 Non-Parent Node Connection,PUMP VARIABLE SPEED 15 OUTLET WATER NODE,PUMP:VARIABLESPEED,PUMP VARIABLE SPEED 15,Outlet,1
 Non-Parent Node Connection,DOMESTIC HOT WATER LOOP|BUILDING UNIT 104 SUPPLY INLET NODE,PUMP:VARIABLESPEED,PUMP VARIABLE SPEED 16,Inlet,1
 Non-Parent Node Connection,PUMP VARIABLE SPEED 16 OUTLET WATER NODE,PUMP:VARIABLESPEED,PUMP VARIABLE SPEED 16,Outlet,1
 Non-Parent Node Connection,DOMESTIC HOT WATER LOOP|BUILDING UNIT 105 SUPPLY INLET NODE,PUMP:VARIABLESPEED,PUMP VARIABLE SPEED 17,Inlet,1
 Non-Parent Node Connection,PUMP VARIABLE SPEED 17 OUTLET WATER NODE,PUMP:VARIABLESPEED,PUMP VARIABLE SPEED 17,Outlet,1
 Non-Parent Node Connection,DOMESTIC HOT WATER LOOP|BUILDING UNIT 106 SUPPLY INLET NODE,PUMP:VARIABLESPEED,PUMP VARIABLE SPEED 18,Inlet,1
 Non-Parent Node Connection,PUMP VARIABLE SPEED 18 OUTLET WATER NODE,PUMP:VARIABLESPEED,PUMP VARIABLE SPEED 18,Outlet,1
 Non-Parent Node Connection,DOMESTIC HOT WATER LOOP|BUILDING UNIT 107 SUPPLY INLET NODE,PUMP:VARIABLESPEED,PUMP VARIABLE SPEED 19,Inlet,1
 Non-Parent Node Connection,PUMP VARIABLE SPEED 19 OUTLET WATER NODE,PUMP:VARIABLESPEED,PUMP VARIABLE SPEED 19,Outlet,1
 Non-Parent Node Connection,DOMESTIC HOT WATER LOOP|BUILDING UNIT 108 SUPPLY INLET NODE,PUMP:VARIABLESPEED,PUMP VARIABLE SPEED 20,Inlet,1
 Non-Parent Node Connection,PUMP VARIABLE SPEED 20 OUTLET WATER NODE,PUMP:VARIABLESPEED,PUMP VARIABLE SPEED 20,Outlet,1
 Non-Parent Node Connection,DOMESTIC HOT WATER LOOP|BUILDING UNIT 109 SUPPLY INLET NODE,PUMP:VARIABLESPEED,PUMP VARIABLE SPEED 21,Inlet,1
 Non-Parent Node Connection,PUMP VARIABLE SPEED 21 OUTLET WATER NODE,PUMP:VARIABLESPEED,PUMP VARIABLE SPEED 21,Outlet,1
 Non-Parent Node Connection,DOMESTIC HOT WATER LOOP|BUILDING UNIT 110 SUPPLY INLET NODE,PUMP:VARIABLESPEED,PUMP VARIABLE SPEED 22,Inlet,1
 Non-Parent Node Connection,PUMP VARIABLE SPEED 22 OUTLET WATER NODE,PUMP:VARIABLESPEED,PUMP VARIABLE SPEED 22,Outlet,1
 Non-Parent Node Connection,DOMESTIC HOT WATER LOOP|BUILDING UNIT 111 SUPPLY INLET NODE,PUMP:VARIABLESPEED,PUMP VARIABLE SPEED 23,Inlet,1
 Non-Parent Node Connection,PUMP VARIABLE SPEED 23 OUTLET WATER NODE,PUMP:VARIABLESPEED,PUMP VARIABLE SPEED 23,Outlet,1
 Non-Parent Node Connection,DOMESTIC HOT WATER LOOP|BUILDING UNIT 112 SUPPLY INLET NODE,PUMP:VARIABLESPEED,PUMP VARIABLE SPEED 24,Inlet,1
 Non-Parent Node Connection,PUMP VARIABLE SPEED 24 OUTLET WATER NODE,PUMP:VARIABLESPEED,PUMP VARIABLE SPEED 24,Outlet,1
 Non-Parent Node Connection,DOMESTIC HOT WATER LOOP|BUILDING UNIT 113 SUPPLY INLET NODE,PUMP:VARIABLESPEED,PUMP VARIABLE SPEED 25,Inlet,1
 Non-Parent Node Connection,PUMP VARIABLE SPEED 25 OUTLET WATER NODE,PUMP:VARIABLESPEED,PUMP VARIABLE SPEED 25,Outlet,1
 Non-Parent Node Connection,DOMESTIC HOT WATER LOOP|BUILDING UNIT 114 SUPPLY INLET NODE,PUMP:VARIABLESPEED,PUMP VARIABLE SPEED 26,Inlet,1
 Non-Parent Node Connection,PUMP VARIABLE SPEED 26 OUTLET WATER NODE,PUMP:VARIABLESPEED,PUMP VARIABLE SPEED 26,Outlet,1
 Non-Parent Node Connection,DOMESTIC HOT WATER LOOP|BUILDING UNIT 115 SUPPLY INLET NODE,PUMP:VARIABLESPEED,PUMP VARIABLE SPEED 27,Inlet,1
 Non-Parent Node Connection,PUMP VARIABLE SPEED 27 OUTLET WATER NODE,PUMP:VARIABLESPEED,PUMP VARIABLE SPEED 27,Outlet,1
 Non-Parent Node Connection,DOMESTIC HOT WATER LOOP|BUILDING UNIT 116 SUPPLY INLET NODE,PUMP:VARIABLESPEED,PUMP VARIABLE SPEED 28,Inlet,1
 Non-Parent Node Connection,PUMP VARIABLE SPEED 28 OUTLET WATER NODE,PUMP:VARIABLESPEED,PUMP VARIABLE SPEED 28,Outlet,1
 Non-Parent Node Connection,DOMESTIC HOT WATER LOOP|BUILDING UNIT 117 SUPPLY INLET NODE,PUMP:VARIABLESPEED,PUMP VARIABLE SPEED 29,Inlet,1
 Non-Parent Node Connection,PUMP VARIABLE SPEED 29 OUTLET WATER NODE,PUMP:VARIABLESPEED,PUMP VARIABLE SPEED 29,Outlet,1
 Non-Parent Node Connection,DOMESTIC HOT WATER LOOP|BUILDING UNIT 118 SUPPLY INLET NODE,PUMP:VARIABLESPEED,PUMP VARIABLE SPEED 30,Inlet,1
 Non-Parent Node Connection,PUMP VARIABLE SPEED 30 OUTLET WATER NODE,PUMP:VARIABLESPEED,PUMP VARIABLE SPEED 30,Outlet,1
 Non-Parent Node Connection,DOMESTIC HOT WATER LOOP|BUILDING UNIT 119 SUPPLY INLET NODE,PUMP:VARIABLESPEED,PUMP VARIABLE SPEED 31,Inlet,1
 Non-Parent Node Connection,PUMP VARIABLE SPEED 31 OUTLET WATER NODE,PUMP:VARIABLESPEED,PUMP VARIABLE SPEED 31,Outlet,1
 Non-Parent Node Connection,DOMESTIC HOT WATER LOOP|BUILDING UNIT 120 SUPPLY INLET NODE,PUMP:VARIABLESPEED,PUMP VARIABLE SPEED 32,Inlet,1
 Non-Parent Node Connection,PUMP VARIABLE SPEED 32 OUTLET WATER NODE,PUMP:VARIABLESPEED,PUMP VARIABLE SPEED 32,Outlet,1
 Non-Parent Node Connection,DOMESTIC HOT WATER LOOP|BUILDING UNIT 121 SUPPLY INLET NODE,PUMP:VARIABLESPEED,PUMP VARIABLE SPEED 33,Inlet,1
 Non-Parent Node Connection,PUMP VARIABLE SPEED 33 OUTLET WATER NODE,PUMP:VARIABLESPEED,PUMP VARIABLE SPEED 33,Outlet,1
 Non-Parent Node Connection,DOMESTIC HOT WATER LOOP|BUILDING UNIT 201 SUPPLY INLET NODE,PUMP:VARIABLESPEED,PUMP VARIABLE SPEED 34,Inlet,1
 Non-Parent Node Connection,PUMP VARIABLE SPEED 34 OUTLET WATER NODE,PUMP:VARIABLESPEED,PUMP VARIABLE SPEED 34,Outlet,1
 Non-Parent Node Connection,DOMESTIC HOT WATER LOOP|BUILDING UNIT 202 SUPPLY INLET NODE,PUMP:VARIABLESPEED,PUMP VARIABLE SPEED 35,Inlet,1
 Non-Parent Node Connection,PUMP VARIABLE SPEED 35 OUTLET WATER NODE,PUMP:VARIABLESPEED,PUMP VARIABLE SPEED 35,Outlet,1
 Non-Parent Node Connection,DOMESTIC HOT WATER LOOP|BUILDING UNIT 203 SUPPLY INLET NODE,PUMP:VARIABLESPEED,PUMP VARIABLE SPEED 36,Inlet,1
 Non-Parent Node Connection,PUMP VARIABLE SPEED 36 OUTLET WATER NODE,PUMP:VARIABLESPEED,PUMP VARIABLE SPEED 36,Outlet,1
 Non-Parent Node Connection,DOMESTIC HOT WATER LOOP|BUILDING UNIT 204 SUPPLY INLET NODE,PUMP:VARIABLESPEED,PUMP VARIABLE SPEED 37,Inlet,1
 Non-Parent Node Connection,PUMP VARIABLE SPEED 37 OUTLET WATER NODE,PUMP:VARIABLESPEED,PUMP VARIABLE SPEED 37,Outlet,1
 Non-Parent Node Connection,DOMESTIC HOT WATER LOOP|BUILDING UNIT 205 SUPPLY INLET NODE,PUMP:VARIABLESPEED,PUMP VARIABLE SPEED 38,Inlet,1
 Non-Parent Node Connection,PUMP VARIABLE SPEED 38 OUTLET WATER NODE,PUMP:VARIABLESPEED,PUMP VARIABLE SPEED 38,Outlet,1
 Non-Parent Node Connection,DOMESTIC HOT WATER LOOP|BUILDING UNIT 206 SUPPLY INLET NODE,PUMP:VARIABLESPEED,PUMP VARIABLE SPEED 39,Inlet,1
 Non-Parent Node Connection,PUMP VARIABLE SPEED 39 OUTLET WATER NODE,PUMP:VARIABLESPEED,PUMP VARIABLE SPEED 39,Outlet,1
 Non-Parent Node Connection,DOMESTIC HOT WATER LOOP|BUILDING UNIT 207 SUPPLY INLET NODE,PUMP:VARIABLESPEED,PUMP VARIABLE SPEED 40,Inlet,1
 Non-Parent Node Connection,PUMP VARIABLE SPEED 40 OUTLET WATER NODE,PUMP:VARIABLESPEED,PUMP VARIABLE SPEED 40,Outlet,1
 Non-Parent Node Connection,DOMESTIC HOT WATER LOOP|BUILDING UNIT 208 SUPPLY INLET NODE,PUMP:VARIABLESPEED,PUMP VARIABLE SPEED 41,Inlet,1
 Non-Parent Node Connection,PUMP VARIABLE SPEED 41 OUTLET WATER NODE,PUMP:VARIABLESPEED,PUMP VARIABLE SPEED 41,Outlet,1
 Non-Parent Node Connection,DOMESTIC HOT WATER LOOP|BUILDING UNIT 209 SUPPLY INLET NODE,PUMP:VARIABLESPEED,PUMP VARIABLE SPEED 42,Inlet,1
 Non-Parent Node Connection,PUMP VARIABLE SPEED 42 OUTLET WATER NODE,PUMP:VARIABLESPEED,PUMP VARIABLE SPEED 42,Outlet,1
 Non-Parent Node Connection,DOMESTIC HOT WATER LOOP|BUILDING UNIT 301 SUPPLY INLET NODE,PUMP:VARIABLESPEED,PUMP VARIABLE SPEED 43,Inlet,1
 Non-Parent Node Connection,PUMP VARIABLE SPEED 43 OUTLET WATER NODE,PUMP:VARIABLESPEED,PUMP VARIABLE SPEED 43,Outlet,1
 Non-Parent Node Connection,DOMESTIC HOT WATER LOOP|BUILDING UNIT 302 SUPPLY INLET NODE,PUMP:VARIABLESPEED,PUMP VARIABLE SPEED 44,Inlet,1
 Non-Parent Node Connection,PUMP VARIABLE SPEED 44 OUTLET WATER NODE,PUMP:VARIABLESPEED,PUMP VARIABLE SPEED 44,Outlet,1
 Non-Parent Node Connection,DOMESTIC HOT WATER LOOP|BUILDING UNIT 303 SUPPLY INLET NODE,PUMP:VARIABLESPEED,PUMP VARIABLE SPEED 45,Inlet,1
 Non-Parent Node Connection,PUMP VARIABLE SPEED 45 OUTLET WATER NODE,PUMP:VARIABLESPEED,PUMP VARIABLE SPEED 45,Outlet,1
